
 OpenBabel01012610563D

  7  6  0  0  0  0  0  0  0  0999 V2000
  -41.3260   -5.6450   26.0280 C   0  0  0  0  0  0  0  0  0  0  0  0
  -40.1400   -6.4510   25.7110 N   0  0  0  0  0  0  0  0  0  0  0  0
  -39.4860   -5.8370   25.2490 H   0  0  0  0  0  0  0  0  0  0  0  0
  -39.7210   -6.7110   26.5920 H   0  0  0  0  0  0  0  0  0  0  0  0
  -42.0130   -5.2160   24.7300 C   0  0  0  0  0  0  0  0  0  0  0  0
  -41.6140   -6.3990   23.4140 S   0  0  0  0  0  0  0  0  0  0  0  0
  -42.2970   -5.8510   22.3930 H   0  0  0  0  0  0  0  0  0  0  0  0
  2  1  1  0  0  0  0
  2  4  1  0  0  0  0
  3  2  1  0  0  0  0
  5  1  1  0  0  0  0
  6  5  1  0  0  0  0
  7  6  1  0  0  0  0
M  END
>  <minimizedAffinity>
-2.30042267

>  <CNNscore>
0.856070101

>  <CNNaffinity>
2.46744132

$$$$

 OpenBabel01012610563D

  7  6  0  0  0  0  0  0  0  0999 V2000
  -33.0290   -3.1780   33.7590 C   0  0  0  0  0  0  0  0  0  0  0  0
  -34.2120   -2.9350   32.9250 N   0  0  0  0  0  0  0  0  0  0  0  0
  -34.2190   -3.6510   32.2140 H   0  0  0  0  0  0  0  0  0  0  0  0
  -35.0190   -3.0980   33.5100 H   0  0  0  0  0  0  0  0  0  0  0  0
  -31.7640   -2.9460   32.9310 C   0  0  0  0  0  0  0  0  0  0  0  0
  -30.3030   -3.3430   33.9310 S   0  0  0  0  0  0  0  0  0  0  0  0
  -29.3320   -3.0790   33.0400 H   0  0  0  0  0  0  0  0  0  0  0  0
  2  4  1  0  0  0  0
  2  1  1  0  0  0  0
  3  2  1  0  0  0  0
  5  1  1  0  0  0  0
  5  6  1  0  0  0  0
  7  6  1  0  0  0  0
M  END
>  <minimizedAffinity>
-2.14927793

>  <CNNscore>
0.823907316

>  <CNNaffinity>
4.53367138

$$$$

 OpenBabel01012610563D

  7  6  0  0  0  0  0  0  0  0999 V2000
  -33.8520   -3.6580   34.7150 C   0  0  0  0  0  0  0  0  0  0  0  0
  -35.0370   -4.5240   34.7080 N   0  0  0  0  0  0  0  0  0  0  0  0
  -34.8560   -5.2590   34.0420 H   0  0  0  0  0  0  0  0  0  0  0  0
  -35.0840   -4.9610   35.6180 H   0  0  0  0  0  0  0  0  0  0  0  0
  -33.7210   -2.9600   33.3600 C   0  0  0  0  0  0  0  0  0  0  0  0
  -31.9660   -2.7820   32.9370 S   0  0  0  0  0  0  0  0  0  0  0  0
  -32.0740   -2.1650   31.7470 H   0  0  0  0  0  0  0  0  0  0  0  0
  2  1  1  0  0  0  0
  2  4  1  0  0  0  0
  3  2  1  0  0  0  0
  5  1  1  0  0  0  0
  6  5  1  0  0  0  0
  7  6  1  0  0  0  0
M  END
>  <minimizedAffinity>
-2.01864314

>  <CNNscore>
0.811674893

>  <CNNaffinity>
3.84134555

$$$$

 OpenBabel01012610563D

  7  6  0  0  0  0  0  0  0  0999 V2000
  -31.6130  -16.1170   35.1550 C   0  0  0  0  0  0  0  0  0  0  0  0
  -32.7250  -16.2480   36.1040 N   0  0  0  0  0  0  0  0  0  0  0  0
  -32.3680  -16.7490   36.9040 H   0  0  0  0  0  0  0  0  0  0  0  0
  -32.9470  -15.3150   36.4220 H   0  0  0  0  0  0  0  0  0  0  0  0
  -31.2240  -17.5000   34.6310 C   0  0  0  0  0  0  0  0  0  0  0  0
  -29.7690  -18.1020   35.5320 S   0  0  0  0  0  0  0  0  0  0  0  0
  -29.6010  -19.2950   34.9340 H   0  0  0  0  0  0  0  0  0  0  0  0
  1  2  1  0  0  0  0
  2  4  1  0  0  0  0
  2  3  1  0  0  0  0
  5  1  1  0  0  0  0
  5  6  1  0  0  0  0
  7  6  1  0  0  0  0
M  END
>  <minimizedAffinity>
-1.64769518

>  <CNNscore>
0.790489316

>  <CNNaffinity>
3.28604341

$$$$

 OpenBabel01012610563D

  7  6  0  0  0  0  0  0  0  0999 V2000
  -42.3110  -15.0610   21.4160 C   0  0  0  0  0  0  0  0  0  0  0  0
  -41.5560  -13.9800   22.0620 N   0  0  0  0  0  0  0  0  0  0  0  0
  -41.8810  -13.1160   21.6560 H   0  0  0  0  0  0  0  0  0  0  0  0
  -41.8370  -13.9690   23.0320 H   0  0  0  0  0  0  0  0  0  0  0  0
  -41.9310  -15.1350   19.9360 C   0  0  0  0  0  0  0  0  0  0  0  0
  -41.3440  -16.8060   19.5440 S   0  0  0  0  0  0  0  0  0  0  0  0
  -41.0720  -16.6570   18.2350 H   0  0  0  0  0  0  0  0  0  0  0  0
  1  2  1  0  0  0  0
  2  4  1  0  0  0  0
  3  2  1  0  0  0  0
  5  1  1  0  0  0  0
  6  5  1  0  0  0  0
  7  6  1  0  0  0  0
M  END
>  <minimizedAffinity>
-2.00889897

>  <CNNscore>
0.775377989

>  <CNNaffinity>
2.91390824

$$$$

 OpenBabel01012610563D

  7  6  0  0  0  0  0  0  0  0999 V2000
  -30.8910   -3.2430   34.0760 C   0  0  0  0  0  0  0  0  0  0  0  0
  -30.1360   -4.4810   33.8510 N   0  0  0  0  0  0  0  0  0  0  0  0
  -29.4590   -4.2820   33.1290 H   0  0  0  0  0  0  0  0  0  0  0  0
  -29.6140   -4.6610   34.6970 H   0  0  0  0  0  0  0  0  0  0  0  0
  -31.7090   -2.9100   32.8270 C   0  0  0  0  0  0  0  0  0  0  0  0
  -33.4640   -2.7790   33.2690 S   0  0  0  0  0  0  0  0  0  0  0  0
  -33.9870   -2.4900   32.0650 H   0  0  0  0  0  0  0  0  0  0  0  0
  2  1  1  0  0  0  0
  2  4  1  0  0  0  0
  3  2  1  0  0  0  0
  5  6  1  0  0  0  0
  5  1  1  0  0  0  0
  7  6  1  0  0  0  0
M  END
>  <minimizedAffinity>
-2.11209917

>  <CNNscore>
0.768590927

>  <CNNaffinity>
3.93890262

$$$$

 OpenBabel01012610563D

  7  6  0  0  0  0  0  0  0  0999 V2000
  -41.3800   -5.9210   25.4870 C   0  0  0  0  0  0  0  0  0  0  0  0
  -40.0560   -6.4940   25.7570 N   0  0  0  0  0  0  0  0  0  0  0  0
  -40.0290   -6.7110   26.7430 H   0  0  0  0  0  0  0  0  0  0  0  0
  -40.0160   -7.3760   25.2660 H   0  0  0  0  0  0  0  0  0  0  0  0
  -41.5100   -4.5760   26.2050 C   0  0  0  0  0  0  0  0  0  0  0  0
  -42.8620   -3.6210   25.4630 S   0  0  0  0  0  0  0  0  0  0  0  0
  -42.8060   -2.5100   26.2190 H   0  0  0  0  0  0  0  0  0  0  0  0
  1  2  1  0  0  0  0
  1  5  1  0  0  0  0
  2  3  1  0  0  0  0
  4  2  1  0  0  0  0
  6  5  1  0  0  0  0
  6  7  1  0  0  0  0
M  END
>  <minimizedAffinity>
-2.22724485

>  <CNNscore>
0.732406497

>  <CNNaffinity>
2.73240757

$$$$

 OpenBabel01012610563D

  7  6  0  0  0  0  0  0  0  0999 V2000
  -29.2280   -4.2730   34.4610 C   0  0  0  0  0  0  0  0  0  0  0  0
  -28.5620   -4.6570   35.7120 N   0  0  0  0  0  0  0  0  0  0  0  0
  -29.2100   -5.2430   36.2180 H   0  0  0  0  0  0  0  0  0  0  0  0
  -27.7800   -5.2420   35.4560 H   0  0  0  0  0  0  0  0  0  0  0  0
  -30.4290   -3.3790   34.7760 C   0  0  0  0  0  0  0  0  0  0  0  0
  -31.4050   -3.1220   33.2690 S   0  0  0  0  0  0  0  0  0  0  0  0
  -32.3820   -2.3350   33.7540 H   0  0  0  0  0  0  0  0  0  0  0  0
  1  5  1  0  0  0  0
  1  2  1  0  0  0  0
  2  3  1  0  0  0  0
  4  2  1  0  0  0  0
  6  7  1  0  0  0  0
  6  5  1  0  0  0  0
M  END
>  <minimizedAffinity>
-1.78632534

>  <CNNscore>
0.715269208

>  <CNNaffinity>
3.69817376

$$$$

 OpenBabel01012610563D

  7  6  0  0  0  0  0  0  0  0999 V2000
  -40.2560  -17.3530   18.7500 C   0  0  0  0  0  0  0  0  0  0  0  0
  -39.7180  -17.8870   20.0070 N   0  0  0  0  0  0  0  0  0  0  0  0
  -40.4930  -18.3010   20.5030 H   0  0  0  0  0  0  0  0  0  0  0  0
  -39.0950  -18.6430   19.7580 H   0  0  0  0  0  0  0  0  0  0  0  0
  -41.2110  -16.1970   19.0540 C   0  0  0  0  0  0  0  0  0  0  0  0
  -40.8220  -14.7890   17.9780 S   0  0  0  0  0  0  0  0  0  0  0  0
  -41.7500  -13.9110   18.3970 H   0  0  0  0  0  0  0  0  0  0  0  0
  1  5  1  0  0  0  0
  1  2  1  0  0  0  0
  2  3  1  0  0  0  0
  4  2  1  0  0  0  0
  6  7  1  0  0  0  0
  6  5  1  0  0  0  0
M  END
>  <minimizedAffinity>
-1.80266571

>  <CNNscore>
0.665160894

>  <CNNaffinity>
2.70747542

$$$$
