
 OpenBabel01022600583D

 33 37  0  0  1  0  0  0  0  0999 V2000
  -42.7720  -21.7230   19.2830 O   0  0  0  0  0  0  0  0  0  0  0  0
  -41.8730  -23.8170   19.7860 O   0  0  0  0  0  0  0  0  0  0  0  0
  -44.5530  -16.8740   27.3240 O   0  0  0  0  0  0  0  0  0  0  0  0
  -41.3150  -20.4910   20.7740 C   0  0  1  0  0  0  0  0  0  0  0  0
  -41.9400  -21.2840   21.9530 C   0  0  2  0  0  0  0  0  0  0  0  0
  -41.6660  -20.5030   23.2230 C   0  0  1  0  0  0  0  0  0  0  0  0
  -41.3950  -21.5150   19.6350 C   0  0  1  0  0  0  0  0  0  0  0  0
  -42.4110  -19.1620   23.1090 C   0  0  2  0  0  0  0  0  0  0  0  0
  -41.2850  -22.6560   21.8420 C   0  0  0  0  0  0  0  0  0  0  0  0
  -40.9750  -22.8430   20.3380 C   0  0  1  0  0  0  0  0  0  0  0  0
  -42.1550  -19.2390   20.5890 C   0  0  0  0  0  0  0  0  0  0  0  0
  -41.9930  -18.3920   21.8610 C   0  0  2  0  0  0  0  0  0  0  0  0
  -42.1120  -18.3180   24.3520 C   0  0  1  0  0  0  0  0  0  0  0  0
  -42.1850  -21.2770   24.4360 C   0  0  0  0  0  0  0  0  0  0  0  0
  -39.8570  -20.1380   21.0760 C   0  0  0  0  0  0  0  0  0  0  0  0
  -41.8680  -20.5000   25.7180 C   0  0  0  0  0  0  0  0  0  0  0  0
  -42.4500  -19.1060   25.5820 C   0  0  0  0  0  0  0  0  0  0  0  0
  -43.0560  -23.1190   19.3900 C   0  0  2  0  0  0  0  0  0  0  0  0
  -40.6090  -18.0360   24.3740 C   0  0  0  0  0  0  0  0  0  0  0  0
  -42.8050  -17.0010   24.2710 C   0  0  0  0  0  0  0  0  0  0  0  0
  -43.2400  -18.6450   26.5420 C   0  0  0  0  0  0  0  0  0  0  0  0
  -43.6010  -16.5240   25.2140 C   0  0  0  0  0  0  0  0  0  0  0  0
  -43.8540  -17.3140   26.4310 C   0  0  0  0  0  0  0  0  0  0  0  0
  -40.6240  -18.0040   21.9900 O   0  0  0  0  0  0  0  0  0  0  0  0
  -40.3920  -17.5200   21.1850 H   0  0  0  0  0  0  0  0  0  0  0  0
  -39.3330  -21.2510   18.5270 O   0  0  0  0  0  0  0  0  0  0  0  0
  -40.5340  -21.1520   18.4520 C   0  0  0  0  0  0  0  0  0  0  0  0
  -41.1730  -20.6640   17.1770 C   0  0  0  0  0  0  0  0  0  0  0  0
  -40.3880  -19.6030   16.6280 O   0  0  0  0  0  0  0  0  0  0  0  0
  -40.8300  -19.3210   15.8150 H   0  0  0  0  0  0  0  0  0  0  0  0
  -43.5300  -23.6480   18.0340 C   0  0  0  0  0  0  0  0  0  0  0  0
  -44.6390  -22.7440   17.4930 C   0  0  0  0  0  0  0  0  0  0  0  0
  -45.3980  -23.4770   16.3850 C   0  0  0  0  0  0  0  0  0  0  0  0
  1 18  1  0  0  0  0
  1  7  1  0  0  0  0
  2 10  1  0  0  0  0
  4 15  1  1  0  0  0
  4  5  1  0  0  0  0
  5  9  1  1  0  0  0
  5  6  1  0  0  0  0
  6 14  1  1  0  0  0
  7 27  1  6  0  0  0
  7 10  1  0  0  0  0
  7  4  1  0  0  0  0
  8  6  1  0  0  0  0
  8 13  1  0  0  0  0
 10  9  1  0  0  0  0
 11  4  1  0  0  0  0
 11 12  1  0  0  0  0
 12 24  1  0  0  0  0
 12  8  1  0  0  0  0
 13 19  1  0  0  0  0
 13 17  1  0  0  0  0
 14 16  1  0  0  0  0
 17 16  1  0  0  0  0
 17 21  2  0  0  0  0
 18  2  1  0  0  0  0
 20 13  1  0  0  0  0
 20 22  2  0  0  0  0
 22 23  1  0  0  0  0
 23 21  1  0  0  0  0
 23  3  2  0  0  0  0
 25 24  1  0  0  0  0
 27 26  2  0  0  0  0
 28 27  1  0  0  0  0
 29 28  1  0  0  0  0
 30 29  1  0  0  0  0
 31 18  1  0  0  0  0
 32 31  1  0  0  0  0
 33 32  1  0  0  0  0
M  END
>  <minimizedAffinity>
-4.67923689

>  <CNNscore>
0.501400113

>  <CNNaffinity>
5.57903814

$$$$

 OpenBabel01022600583D

 33 37  0  0  1  0  0  0  0  0999 V2000
  -42.3820  -19.5600   18.5040 O   0  0  0  0  0  0  0  0  0  0  0  0
  -41.9440  -19.2820   20.7800 O   0  0  0  0  0  0  0  0  0  0  0  0
  -42.3610  -11.0910   14.0760 O   0  0  0  0  0  0  0  0  0  0  0  0
  -40.5680  -18.1440   17.7530 C   0  0  1  0  0  0  0  0  0  0  0  0
  -41.2590  -16.9620   18.4850 C   0  0  2  0  0  0  0  0  0  0  0  0
  -40.7130  -15.6770   17.8930 C   0  0  1  0  0  0  0  0  0  0  0  0
  -40.9700  -19.3320   18.6350 C   0  0  1  0  0  0  0  0  0  0  0  0
  -41.1420  -15.6320   16.4170 C   0  0  2  0  0  0  0  0  0  0  0  0
  -40.9430  -17.2240   19.9540 C   0  0  0  0  0  0  0  0  0  0  0  0
  -40.8070  -18.7590   20.0770 C   0  0  1  0  0  0  0  0  0  0  0  0
  -41.1140  -18.1650   16.3360 C   0  0  0  0  0  0  0  0  0  0  0  0
  -40.6620  -16.8640   15.6550 C   0  0  2  0  0  0  0  0  0  0  0  0
  -40.5600  -14.3730   15.7660 C   0  0  1  0  0  0  0  0  0  0  0  0
  -41.2940  -14.4710   18.6330 C   0  0  0  0  0  0  0  0  0  0  0  0
  -39.0480  -17.9640   17.7560 C   0  0  0  0  0  0  0  0  0  0  0  0
  -40.7070  -13.1800   18.0560 C   0  0  0  0  0  0  0  0  0  0  0  0
  -40.9670  -13.1690   16.5610 C   0  0  0  0  0  0  0  0  0  0  0  0
  -42.9650  -19.5160   19.8070 C   0  0  2  0  0  0  0  0  0  0  0  0
  -39.0350  -14.4800   15.8250 C   0  0  0  0  0  0  0  0  0  0  0  0
  -40.9400  -14.3020   14.3270 C   0  0  0  0  0  0  0  0  0  0  0  0
  -41.5510  -12.1090   16.0200 C   0  0  0  0  0  0  0  0  0  0  0  0
  -41.5280  -13.2570   13.7670 C   0  0  0  0  0  0  0  0  0  0  0  0
  -41.8550  -12.0740   14.5820 C   0  0  0  0  0  0  0  0  0  0  0  0
  -39.2350  -16.8440   15.5900 O   0  0  0  0  0  0  0  0  0  0  0  0
  -38.9650  -17.6350   15.1030 H   0  0  0  0  0  0  0  0  0  0  0  0
  -39.0730  -20.7030   18.9070 O   0  0  0  0  0  0  0  0  0  0  0  0
  -40.1480  -20.5680   18.3720 C   0  0  0  0  0  0  0  0  0  0  0  0
  -40.6650  -21.6330   17.4400 C   0  0  0  0  0  0  0  0  0  0  0  0
  -40.1340  -21.4180   16.1300 O   0  0  0  0  0  0  0  0  0  0  0  0
  -40.4890  -22.1200   15.5670 H   0  0  0  0  0  0  0  0  0  0  0  0
  -43.6550  -20.8490   20.1030 C   0  0  0  0  0  0  0  0  0  0  0  0
  -42.8910  -21.5860   21.2050 C   0  0  0  0  0  0  0  0  0  0  0  0
  -42.1940  -22.8110   20.6110 C   0  0  0  0  0  0  0  0  0  0  0  0
  1  7  1  0  0  0  0
  1 18  1  0  0  0  0
  3 23  2  0  0  0  0
  4 15  1  6  0  0  0
  4  5  1  0  0  0  0
  4  7  1  0  0  0  0
  5  9  1  1  0  0  0
  6  5  1  0  0  0  0
  6 14  1  1  0  0  0
  7 27  1  6  0  0  0
  7 10  1  0  0  0  0
  8  6  1  0  0  0  0
  9 10  1  0  0  0  0
 10  2  1  0  0  0  0
 11  4  1  0  0  0  0
 12 11  1  0  0  0  0
 12  8  1  0  0  0  0
 13 19  1  0  0  0  0
 13  8  1  0  0  0  0
 13 17  1  0  0  0  0
 16 14  1  0  0  0  0
 17 16  1  0  0  0  0
 18 31  1  0  0  0  0
 18  2  1  0  0  0  0
 20 13  1  0  0  0  0
 21 17  2  0  0  0  0
 22 20  2  0  0  0  0
 22 23  1  0  0  0  0
 23 21  1  0  0  0  0
 24 12  1  0  0  0  0
 25 24  1  0  0  0  0
 27 26  2  0  0  0  0
 28 27  1  0  0  0  0
 29 28  1  0  0  0  0
 30 29  1  0  0  0  0
 31 32  1  0  0  0  0
 33 32  1  0  0  0  0
M  END
>  <minimizedAffinity>
-5.01922035

>  <CNNscore>
0.496307582

>  <CNNaffinity>
4.86410904

$$$$

 OpenBabel01022600583D

 33 37  0  0  1  0  0  0  0  0999 V2000
  -42.0850  -23.8970   26.2010 O   0  0  0  0  0  0  0  0  0  0  0  0
  -42.6160  -23.5700   28.4510 O   0  0  0  0  0  0  0  0  0  0  0  0
  -43.9100  -15.9670   21.1890 O   0  0  0  0  0  0  0  0  0  0  0  0
  -40.8500  -21.8280   25.9610 C   0  0  1  0  0  0  0  0  0  0  0  0
  -42.1630  -21.0680   26.2920 C   0  0  2  0  0  0  0  0  0  0  0  0
  -42.0070  -19.6470   25.7890 C   0  0  1  0  0  0  0  0  0  0  0  0
  -41.0240  -23.1160   26.7740 C   0  0  1  0  0  0  0  0  0  0  0  0
  -41.8750  -19.7130   24.2580 C   0  0  2  0  0  0  0  0  0  0  0  0
  -42.3020  -21.2460   27.8000 C   0  0  0  0  0  0  0  0  0  0  0  0
  -41.6160  -22.5950   28.1200 C   0  0  1  0  0  0  0  0  0  0  0  0
  -40.8130  -22.0050   24.4530 C   0  0  0  0  0  0  0  0  0  0  0  0
  -40.7110  -20.6030   23.8330 C   0  0  2  0  0  0  0  0  0  0  0  0
  -41.6590  -18.2970   23.7150 C   0  0  1  0  0  0  0  0  0  0  0  0
  -43.2400  -18.8210   26.1620 C   0  0  0  0  0  0  0  0  0  0  0  0
  -39.6340  -21.0410   26.4550 C   0  0  0  0  0  0  0  0  0  0  0  0
  -43.0560  -17.3770   25.6860 C   0  0  0  0  0  0  0  0  0  0  0  0
  -42.7610  -17.4040   24.1980 C   0  0  0  0  0  0  0  0  0  0  0  0
  -43.0510  -24.1560   27.2210 C   0  0  2  0  0  0  0  0  0  0  0  0
  -40.3430  -17.7720   24.2930 C   0  0  0  0  0  0  0  0  0  0  0  0
  -41.5090  -18.3210   22.2320 C   0  0  0  0  0  0  0  0  0  0  0  0
  -43.4920  -16.6530   23.3870 C   0  0  0  0  0  0  0  0  0  0  0  0
  -42.2300  -17.5840   21.4030 C   0  0  0  0  0  0  0  0  0  0  0  0
  -43.2630  -16.6780   21.9340 C   0  0  0  0  0  0  0  0  0  0  0  0
  -39.4860  -19.9970   24.2490 O   0  0  0  0  0  0  0  0  0  0  0  0
  -38.7720  -20.5840   23.9650 H   0  0  0  0  0  0  0  0  0  0  0  0
  -39.1130  -24.2250   25.9550 O   0  0  0  0  0  0  0  0  0  0  0  0
  -39.7410  -23.8930   26.9310 C   0  0  0  0  0  0  0  0  0  0  0  0
  -39.2430  -24.2550   28.3070 C   0  0  0  0  0  0  0  0  0  0  0  0
  -38.7700  -23.0790   28.9660 O   0  0  0  0  0  0  0  0  0  0  0  0
  -38.4620  -23.3540   29.8420 H   0  0  0  0  0  0  0  0  0  0  0  0
  -43.2060  -25.6670   27.4040 C   0  0  0  0  0  0  0  0  0  0  0  0
  -44.0240  -25.9480   28.6660 C   0  0  0  0  0  0  0  0  0  0  0  0
  -45.5000  -25.6550   28.3920 C   0  0  0  0  0  0  0  0  0  0  0  0
  1  7  1  0  0  0  0
  1 18  1  0  0  0  0
  3 23  2  0  0  0  0
  4  5  1  0  0  0  0
  4 15  1  1  0  0  0
  4  7  1  0  0  0  0
  5  9  1  1  0  0  0
  6 14  1  6  0  0  0
  6  5  1  0  0  0  0
  7 27  1  1  0  0  0
  7 10  1  0  0  0  0
  8  6  1  0  0  0  0
  9 10  1  0  0  0  0
 10  2  1  0  0  0  0
 11  4  1  0  0  0  0
 12 24  1  0  0  0  0
 12  8  1  0  0  0  0
 12 11  1  0  0  0  0
 13 17  1  0  0  0  0
 13  8  1  0  0  0  0
 13 19  1  0  0  0  0
 16 14  1  0  0  0  0
 17 16  1  0  0  0  0
 18 31  1  0  0  0  0
 18  2  1  0  0  0  0
 20 13  1  0  0  0  0
 21 17  2  0  0  0  0
 22 23  1  0  0  0  0
 22 20  2  0  0  0  0
 23 21  1  0  0  0  0
 25 24  1  0  0  0  0
 26 27  2  0  0  0  0
 27 28  1  0  0  0  0
 28 29  1  0  0  0  0
 29 30  1  0  0  0  0
 31 32  1  0  0  0  0
 33 32  1  0  0  0  0
M  END
>  <minimizedAffinity>
-4.47828722

>  <CNNscore>
0.490386724

>  <CNNaffinity>
5.84880257

$$$$

 OpenBabel01022600583D

 33 37  0  0  1  0  0  0  0  0999 V2000
  -42.1130  -19.9260   18.0910 O   0  0  0  0  0  0  0  0  0  0  0  0
  -39.8480  -20.4870   18.1350 O   0  0  0  0  0  0  0  0  0  0  0  0
  -45.0350  -17.2920   26.8010 O   0  0  0  0  0  0  0  0  0  0  0  0
  -41.8530  -17.8530   19.3150 C   0  0  1  0  0  0  0  0  0  0  0  0
  -41.3370  -18.6900   20.5160 C   0  0  2  0  0  0  0  0  0  0  0  0
  -41.4810  -17.8370   21.7610 C   0  0  1  0  0  0  0  0  0  0  0  0
  -41.3760  -18.6940   18.1240 C   0  0  1  0  0  0  0  0  0  0  0  0
  -42.9830  -17.5840   21.9740 C   0  0  2  0  0  0  0  0  0  0  0  0
  -39.9160  -19.0600   20.1040 C   0  0  0  0  0  0  0  0  0  0  0  0
  -39.9390  -19.1190   18.5590 C   0  0  1  0  0  0  0  0  0  0  0  0
  -43.3590  -17.7370   19.4730 C   0  0  0  0  0  0  0  0  0  0  0  0
  -43.6210  -16.9280   20.7530 C   0  0  2  0  0  0  0  0  0  0  0  0
  -43.1680  -16.6750   23.1940 C   0  0  1  0  0  0  0  0  0  0  0  0
  -40.9090  -18.5760   22.9720 C   0  0  0  0  0  0  0  0  0  0  0  0
  -41.1910  -16.4730   19.2960 C   0  0  0  0  0  0  0  0  0  0  0  0
  -41.0220  -17.6910   24.2170 C   0  0  0  0  0  0  0  0  0  0  0  0
  -42.4740  -17.2820   24.3760 C   0  0  0  0  0  0  0  0  0  0  0  0
  -41.1800  -21.0070   18.1100 C   0  0  2  0  0  0  0  0  0  0  0  0
  -42.4900  -15.3380   22.8870 C   0  0  0  0  0  0  0  0  0  0  0  0
  -44.6140  -16.3920   23.4230 C   0  0  0  0  0  0  0  0  0  0  0  0
  -43.0730  -17.4860   25.5410 C   0  0  0  0  0  0  0  0  0  0  0  0
  -45.2330  -16.5930   24.5750 C   0  0  0  0  0  0  0  0  0  0  0  0
  -44.4900  -17.1370   25.7250 C   0  0  0  0  0  0  0  0  0  0  0  0
  -43.0790  -15.6150   20.5930 O   0  0  0  0  0  0  0  0  0  0  0  0
  -43.5030  -15.2310   19.8140 H   0  0  0  0  0  0  0  0  0  0  0  0
  -42.4850  -17.6660   16.3170 O   0  0  0  0  0  0  0  0  0  0  0  0
  -41.4220  -17.9450   16.8170 C   0  0  0  0  0  0  0  0  0  0  0  0
  -40.1400  -17.5460   16.1320 C   0  0  0  0  0  0  0  0  0  0  0  0
  -39.0280  -17.9080   16.9540 O   0  0  0  0  0  0  0  0  0  0  0  0
  -38.2300  -17.6370   16.4800 H   0  0  0  0  0  0  0  0  0  0  0  0
  -41.3680  -21.8660   16.8580 C   0  0  0  0  0  0  0  0  0  0  0  0
  -41.7090  -23.3000   17.2680 C   0  0  0  0  0  0  0  0  0  0  0  0
  -40.5180  -23.9150   18.0060 C   0  0  0  0  0  0  0  0  0  0  0  0
  1 18  1  0  0  0  0
  1  7  1  0  0  0  0
  2 10  1  0  0  0  0
  4 15  1  6  0  0  0
  4 11  1  0  0  0  0
  4  5  1  0  0  0  0
  5  9  1  6  0  0  0
  5  6  1  0  0  0  0
  6  8  1  0  0  0  0
  6 14  1  1  0  0  0
  7 27  1  6  0  0  0
  7 10  1  0  0  0  0
  7  4  1  0  0  0  0
  8 13  1  0  0  0  0
 10  9  1  0  0  0  0
 11 12  1  0  0  0  0
 12  8  1  0  0  0  0
 13 20  1  0  0  0  0
 13 17  1  0  0  0  0
 14 16  1  0  0  0  0
 16 17  1  0  0  0  0
 17 21  2  0  0  0  0
 18  2  1  0  0  0  0
 19 13  1  0  0  0  0
 20 22  2  0  0  0  0
 21 23  1  0  0  0  0
 22 23  1  0  0  0  0
 23  3  2  0  0  0  0
 24 12  1  0  0  0  0
 25 24  1  0  0  0  0
 26 27  2  0  0  0  0
 28 27  1  0  0  0  0
 28 29  1  0  0  0  0
 30 29  1  0  0  0  0
 31 32  1  0  0  0  0
 31 18  1  0  0  0  0
 32 33  1  0  0  0  0
M  END
>  <minimizedAffinity>
-4.66140985

>  <CNNscore>
0.451505423

>  <CNNaffinity>
5.17852354

$$$$

 OpenBabel01022600583D

 33 37  0  0  1  0  0  0  0  0999 V2000
  -39.6110  -18.8960   23.4950 O   0  0  0  0  0  0  0  0  0  0  0  0
  -40.4380  -20.1810   25.2600 O   0  0  0  0  0  0  0  0  0  0  0  0
  -40.1630  -23.7880   15.3040 O   0  0  0  0  0  0  0  0  0  0  0  0
  -41.4700  -19.3360   22.0090 C   0  0  1  0  0  0  0  0  0  0  0  0
  -41.0820  -20.8390   22.0550 C   0  0  2  0  0  0  0  0  0  0  0  0
  -41.7080  -21.5090   20.8480 C   0  0  1  0  0  0  0  0  0  0  0  0
  -41.0430  -18.8630   23.4040 C   0  0  1  0  0  0  0  0  0  0  0  0
  -41.0630  -20.8950   19.5940 C   0  0  2  0  0  0  0  0  0  0  0  0
  -41.5830  -21.2910   23.4220 C   0  0  0  0  0  0  0  0  0  0  0  0
  -41.5130  -20.0340   24.3220 C   0  0  1  0  0  0  0  0  0  0  0  0
  -40.7100  -18.7210   20.8470 C   0  0  0  0  0  0  0  0  0  0  0  0
  -41.2330  -19.3790   19.5610 C   0  0  2  0  0  0  0  0  0  0  0  0
  -41.7120  -21.5070   18.3490 C   0  0  1  0  0  0  0  0  0  0  0  0
  -41.4320  -23.0130   20.8820 C   0  0  0  0  0  0  0  0  0  0  0  0
  -42.9810  -19.1770   21.8270 C   0  0  0  0  0  0  0  0  0  0  0  0
  -42.1030  -23.6880   19.6820 C   0  0  0  0  0  0  0  0  0  0  0  0
  -41.6150  -23.0010   18.4200 C   0  0  0  0  0  0  0  0  0  0  0  0
  -39.2520  -19.7070   24.6160 C   0  0  2  0  0  0  0  0  0  0  0  0
  -43.1960  -21.1330   18.3640 C   0  0  0  0  0  0  0  0  0  0  0  0
  -41.1240  -20.9230   17.1100 C   0  0  0  0  0  0  0  0  0  0  0  0
  -41.1120  -23.7410   17.4410 C   0  0  0  0  0  0  0  0  0  0  0  0
  -40.6130  -21.6410   16.1230 C   0  0  0  0  0  0  0  0  0  0  0  0
  -40.5940  -23.1110   16.2180 C   0  0  0  0  0  0  0  0  0  0  0  0
  -42.6200  -19.0690   19.4110 O   0  0  0  0  0  0  0  0  0  0  0  0
  -42.6920  -18.1050   19.3930 H   0  0  0  0  0  0  0  0  0  0  0  0
  -41.2790  -16.5280   23.1870 O   0  0  0  0  0  0  0  0  0  0  0  0
  -41.6260  -17.5230   23.7760 C   0  0  0  0  0  0  0  0  0  0  0  0
  -42.6410  -17.4260   24.8860 C   0  0  0  0  0  0  0  0  0  0  0  0
  -43.8900  -16.9820   24.3500 O   0  0  0  0  0  0  0  0  0  0  0  0
  -44.5100  -16.9340   25.0910 H   0  0  0  0  0  0  0  0  0  0  0  0
  -38.4320  -18.8770   25.6050 C   0  0  0  0  0  0  0  0  0  0  0  0
  -37.8770  -19.7890   26.7000 C   0  0  0  0  0  0  0  0  0  0  0  0
  -37.5020  -21.1430   26.0950 C   0  0  0  0  0  0  0  0  0  0  0  0
  1 18  1  0  0  0  0
  3 23  2  0  0  0  0
  4 15  1  6  0  0  0
  4  5  1  0  0  0  0
  4  7  1  0  0  0  0
  5  9  1  1  0  0  0
  6 14  1  1  0  0  0
  6  5  1  0  0  0  0
  7  1  1  0  0  0  0
  7 27  1  1  0  0  0
  7 10  1  0  0  0  0
  8  6  1  0  0  0  0
  9 10  1  0  0  0  0
 10  2  1  0  0  0  0
 11  4  1  0  0  0  0
 12  8  1  0  0  0  0
 12 11  1  0  0  0  0
 13 19  1  0  0  0  0
 13 17  1  0  0  0  0
 13  8  1  0  0  0  0
 16 14  1  0  0  0  0
 17 16  1  0  0  0  0
 18  2  1  0  0  0  0
 18 31  1  0  0  0  0
 20 13  1  0  0  0  0
 21 17  2  0  0  0  0
 22 23  1  0  0  0  0
 22 20  2  0  0  0  0
 23 21  1  0  0  0  0
 24 12  1  0  0  0  0
 25 24  1  0  0  0  0
 26 27  2  0  0  0  0
 27 28  1  0  0  0  0
 29 28  1  0  0  0  0
 29 30  1  0  0  0  0
 31 32  1  0  0  0  0
 33 32  1  0  0  0  0
M  END
>  <minimizedAffinity>
-5.56355429

>  <CNNscore>
0.443646759

>  <CNNaffinity>
5.13878536

$$$$

 OpenBabel01022600583D

 33 37  0  0  1  0  0  0  0  0999 V2000
  -42.0380  -20.5670   18.2910 O   0  0  0  0  0  0  0  0  0  0  0  0
  -39.7960  -21.1690   18.0460 O   0  0  0  0  0  0  0  0  0  0  0  0
  -44.1460  -19.3700   27.5360 O   0  0  0  0  0  0  0  0  0  0  0  0
  -41.6110  -18.7330   19.8120 C   0  0  1  0  0  0  0  0  0  0  0  0
  -41.0250  -19.7670   20.8100 C   0  0  2  0  0  0  0  0  0  0  0  0
  -41.0390  -19.1310   22.1860 C   0  0  1  0  0  0  0  0  0  0  0  0
  -41.2610  -19.3720   18.4630 C   0  0  1  0  0  0  0  0  0  0  0  0
  -42.5090  -18.8900   22.5670 C   0  0  2  0  0  0  0  0  0  0  0  0
  -39.6560  -20.0890   20.2220 C   0  0  0  0  0  0  0  0  0  0  0  0
  -39.8080  -19.8900   18.6950 C   0  0  1  0  0  0  0  0  0  0  0  0
  -43.0940  -18.6170   20.1170 C   0  0  0  0  0  0  0  0  0  0  0  0
  -43.2240  -18.0280   21.5300 C   0  0  2  0  0  0  0  0  0  0  0  0
  -42.5630  -18.1940   23.9310 C   0  0  1  0  0  0  0  0  0  0  0  0
  -40.3930  -20.0730   23.2050 C   0  0  0  0  0  0  0  0  0  0  0  0
  -40.9090  -17.3810   19.9640 C   0  0  0  0  0  0  0  0  0  0  0  0
  -40.3740  -19.4060   24.5840 C   0  0  0  0  0  0  0  0  0  0  0  0
  -41.7940  -19.0020   24.9330 C   0  0  0  0  0  0  0  0  0  0  0  0
  -41.1420  -21.6530   18.0510 C   0  0  2  0  0  0  0  0  0  0  0  0
  -41.8700  -16.8380   23.7910 C   0  0  0  0  0  0  0  0  0  0  0  0
  -43.9750  -17.9270   24.3290 C   0  0  0  0  0  0  0  0  0  0  0  0
  -42.3020  -19.3860   26.0960 C   0  0  0  0  0  0  0  0  0  0  0  0
  -44.5040  -18.3050   25.4810 C   0  0  0  0  0  0  0  0  0  0  0  0
  -43.6860  -19.0470   26.4560 C   0  0  0  0  0  0  0  0  0  0  0  0
  -42.6540  -16.7170   21.5430 O   0  0  0  0  0  0  0  0  0  0  0  0
  -43.1280  -16.2000   20.8770 H   0  0  0  0  0  0  0  0  0  0  0  0
  -42.4820  -18.0460   16.9450 O   0  0  0  0  0  0  0  0  0  0  0  0
  -41.3900  -18.4150   17.3050 C   0  0  0  0  0  0  0  0  0  0  0  0
  -40.1560  -17.9190   16.5960 C   0  0  0  0  0  0  0  0  0  0  0  0
  -39.8780  -18.7630   15.4770 O   0  0  0  0  0  0  0  0  0  0  0  0
  -39.0840  -18.4120   15.0520 H   0  0  0  0  0  0  0  0  0  0  0  0
  -41.4600  -22.2880   16.6960 C   0  0  0  0  0  0  0  0  0  0  0  0
  -40.4930  -23.4430   16.4320 C   0  0  0  0  0  0  0  0  0  0  0  0
  -40.7230  -24.5470   17.4660 C   0  0  0  0  0  0  0  0  0  0  0  0
  1  7  1  0  0  0  0
  2 18  1  0  0  0  0
  2 10  1  0  0  0  0
  4 15  1  1  0  0  0
  4 11  1  0  0  0  0
  4  5  1  0  0  0  0
  5  9  1  6  0  0  0
  5  6  1  0  0  0  0
  6  8  1  0  0  0  0
  6 14  1  1  0  0  0
  7 27  1  6  0  0  0
  7 10  1  0  0  0  0
  7  4  1  0  0  0  0
  8 13  1  0  0  0  0
 10  9  1  0  0  0  0
 11 12  1  0  0  0  0
 12 24  1  0  0  0  0
 12  8  1  0  0  0  0
 13 20  1  0  0  0  0
 13 17  1  0  0  0  0
 14 16  1  0  0  0  0
 16 17  1  0  0  0  0
 17 21  2  0  0  0  0
 18  1  1  0  0  0  0
 19 13  1  0  0  0  0
 20 22  2  0  0  0  0
 21 23  1  0  0  0  0
 22 23  1  0  0  0  0
 23  3  2  0  0  0  0
 25 24  1  0  0  0  0
 26 27  2  0  0  0  0
 28 27  1  0  0  0  0
 29 28  1  0  0  0  0
 30 29  1  0  0  0  0
 31 18  1  0  0  0  0
 32 31  1  0  0  0  0
 32 33  1  0  0  0  0
M  END
>  <minimizedAffinity>
-4.38708639

>  <CNNscore>
0.435639173

>  <CNNaffinity>
5.24450874

$$$$

 OpenBabel01022600583D

 33 37  0  0  1  0  0  0  0  0999 V2000
  -41.1650  -17.0520   20.4230 O   0  0  0  0  0  0  0  0  0  0  0  0
  -43.2330  -16.6710   19.4090 O   0  0  0  0  0  0  0  0  0  0  0  0
  -42.3930  -20.9520   29.0610 O   0  0  0  0  0  0  0  0  0  0  0  0
  -41.6670  -19.3200   21.1060 C   0  0  1  0  0  0  0  0  0  0  0  0
  -42.8100  -18.7460   21.9850 C   0  0  2  0  0  0  0  0  0  0  0  0
  -43.1520  -19.7910   23.0280 C   0  0  1  0  0  0  0  0  0  0  0  0
  -41.6370  -18.3200   19.9430 C   0  0  1  0  0  0  0  0  0  0  0  0
  -41.9140  -19.9690   23.9240 C   0  0  2  0  0  0  0  0  0  0  0  0
  -43.9000  -18.4120   20.9720 C   0  0  0  0  0  0  0  0  0  0  0  0
  -43.1530  -18.0820   19.6580 C   0  0  1  0  0  0  0  0  0  0  0  0
  -40.4200  -19.3540   21.9720 C   0  0  0  0  0  0  0  0  0  0  0  0
  -40.6830  -20.3530   23.1090 C   0  0  2  0  0  0  0  0  0  0  0  0
  -42.2010  -21.0610   24.9590 C   0  0  1  0  0  0  0  0  0  0  0  0
  -44.3340  -19.3170   23.8760 C   0  0  0  0  0  0  0  0  0  0  0  0
  -42.0270  -20.7190   20.6010 C   0  0  0  0  0  0  0  0  0  0  0  0
  -44.6990  -20.3960   24.9000 C   0  0  0  0  0  0  0  0  0  0  0  0
  -43.4560  -20.7220   25.7060 C   0  0  0  0  0  0  0  0  0  0  0  0
  -42.1440  -16.0600   20.1060 C   0  0  2  0  0  0  0  0  0  0  0  0
  -42.4440  -22.3690   24.2030 C   0  0  0  0  0  0  0  0  0  0  0  0
  -41.0150  -21.2760   25.8370 C   0  0  0  0  0  0  0  0  0  0  0  0
  -43.5210  -20.6830   27.0300 C   0  0  0  0  0  0  0  0  0  0  0  0
  -41.0570  -21.2360   27.1590 C   0  0  0  0  0  0  0  0  0  0  0  0
  -42.3290  -20.9560   27.8460 C   0  0  0  0  0  0  0  0  0  0  0  0
  -40.8820  -21.6530   22.5500 O   0  0  0  0  0  0  0  0  0  0  0  0
  -40.0860  -21.8640   22.0420 H   0  0  0  0  0  0  0  0  0  0  0  0
  -41.4370  -19.4050   17.8610 O   0  0  0  0  0  0  0  0  0  0  0  0
  -40.8640  -18.8240   18.7510 C   0  0  0  0  0  0  0  0  0  0  0  0
  -39.3750  -18.6030   18.6710 C   0  0  0  0  0  0  0  0  0  0  0  0
  -38.6980  -19.8430   18.8860 O   0  0  0  0  0  0  0  0  0  0  0  0
  -37.7500  -19.6570   18.8260 H   0  0  0  0  0  0  0  0  0  0  0  0
  -41.5110  -14.9850   19.2210 C   0  0  0  0  0  0  0  0  0  0  0  0
  -42.0960  -13.6180   19.5810 C   0  0  0  0  0  0  0  0  0  0  0  0
  -42.7150  -12.9830   18.3350 C   0  0  0  0  0  0  0  0  0  0  0  0
  2 10  1  0  0  0  0
  2 18  1  0  0  0  0
  4 15  1  6  0  0  0
  4 11  1  0  0  0  0
  4  5  1  0  0  0  0
  5  9  1  6  0  0  0
  5  6  1  0  0  0  0
  6 14  1  1  0  0  0
  6  8  1  0  0  0  0
  7 27  1  6  0  0  0
  7  1  1  0  0  0  0
  7  4  1  0  0  0  0
  8 13  1  0  0  0  0
 10  7  1  0  0  0  0
 10  9  1  0  0  0  0
 11 12  1  0  0  0  0
 12  8  1  0  0  0  0
 13 17  1  0  0  0  0
 13 20  1  0  0  0  0
 14 16  1  0  0  0  0
 16 17  1  0  0  0  0
 17 21  2  0  0  0  0
 18  1  1  0  0  0  0
 19 13  1  0  0  0  0
 20 22  2  0  0  0  0
 21 23  1  0  0  0  0
 22 23  1  0  0  0  0
 23  3  2  0  0  0  0
 24 12  1  0  0  0  0
 25 24  1  0  0  0  0
 26 27  2  0  0  0  0
 28 27  1  0  0  0  0
 28 29  1  0  0  0  0
 30 29  1  0  0  0  0
 31 32  1  0  0  0  0
 31 18  1  0  0  0  0
 33 32  1  0  0  0  0
M  END
>  <minimizedAffinity>
-4.89157534

>  <CNNscore>
0.427992225

>  <CNNaffinity>
5.36085749

$$$$

 OpenBabel01022600583D

 33 37  0  0  1  0  0  0  0  0999 V2000
  -39.9750  -18.3650   23.1960 O   0  0  0  0  0  0  0  0  0  0  0  0
  -40.8300  -19.9290   24.7030 O   0  0  0  0  0  0  0  0  0  0  0  0
  -40.0850  -21.9240   14.3270 O   0  0  0  0  0  0  0  0  0  0  0  0
  -41.7650  -18.6090   21.5840 C   0  0  1  0  0  0  0  0  0  0  0  0
  -41.3360  -20.0910   21.4110 C   0  0  2  0  0  0  0  0  0  0  0  0
  -41.8990  -20.5770   20.0900 C   0  0  1  0  0  0  0  0  0  0  0  0
  -41.4040  -18.3500   23.0520 C   0  0  1  0  0  0  0  0  0  0  0  0
  -41.2250  -19.7600   18.9750 C   0  0  2  0  0  0  0  0  0  0  0  0
  -41.8750  -20.7620   22.6700 C   0  0  0  0  0  0  0  0  0  0  0  0
  -41.8740  -19.6610   23.7560 C   0  0  1  0  0  0  0  0  0  0  0  0
  -40.9810  -17.8020   20.5640 C   0  0  0  0  0  0  0  0  0  0  0  0
  -41.4370  -18.2620   19.1710 C   0  0  2  0  0  0  0  0  0  0  0  0
  -41.8100  -20.1840   17.6240 C   0  0  1  0  0  0  0  0  0  0  0  0
  -41.5810  -22.0620   19.9010 C   0  0  0  0  0  0  0  0  0  0  0  0
  -43.2730  -18.4560   21.3670 C   0  0  0  0  0  0  0  0  0  0  0  0
  -42.1870  -22.5550   18.5840 C   0  0  0  0  0  0  0  0  0  0  0  0
  -41.6730  -21.6680   17.4660 C   0  0  0  0  0  0  0  0  0  0  0  0
  -39.6360  -19.3330   24.1900 C   0  0  2  0  0  0  0  0  0  0  0  0
  -43.3030  -19.8500   17.6360 C   0  0  0  0  0  0  0  0  0  0  0  0
  -41.1940  -19.4000   16.5160 C   0  0  0  0  0  0  0  0  0  0  0  0
  -41.1140  -22.2340   16.4050 C   0  0  0  0  0  0  0  0  0  0  0  0
  -40.6260  -19.9430   15.4510 C   0  0  0  0  0  0  0  0  0  0  0  0
  -40.5690  -21.4090   15.3160 C   0  0  0  0  0  0  0  0  0  0  0  0
  -42.8260  -17.9630   19.0140 O   0  0  0  0  0  0  0  0  0  0  0  0
  -42.9240  -17.0100   19.1440 H   0  0  0  0  0  0  0  0  0  0  0  0
  -41.7500  -16.0210   23.1410 O   0  0  0  0  0  0  0  0  0  0  0  0
  -42.0380  -17.0990   23.6040 C   0  0  0  0  0  0  0  0  0  0  0  0
  -43.0300  -17.1930   24.7350 C   0  0  0  0  0  0  0  0  0  0  0  0
  -43.6270  -15.9130   24.9520 O   0  0  0  0  0  0  0  0  0  0  0  0
  -44.2540  -16.0170   25.6820 H   0  0  0  0  0  0  0  0  0  0  0  0
  -38.8760  -18.6500   25.3290 C   0  0  0  0  0  0  0  0  0  0  0  0
  -37.6260  -19.4630   25.6690 C   0  0  0  0  0  0  0  0  0  0  0  0
  -37.9400  -20.4240   26.8180 C   0  0  0  0  0  0  0  0  0  0  0  0
  1 18  1  0  0  0  0
  3 23  2  0  0  0  0
  4 15  1  6  0  0  0
  4  7  1  0  0  0  0
  5  4  1  0  0  0  0
  5  9  1  1  0  0  0
  6 14  1  6  0  0  0
  6  5  1  0  0  0  0
  7  1  1  0  0  0  0
  7 27  1  1  0  0  0
  7 10  1  0  0  0  0
  8 12  1  0  0  0  0
  8  6  1  0  0  0  0
  9 10  1  0  0  0  0
 10  2  1  0  0  0  0
 11  4  1  0  0  0  0
 12 11  1  0  0  0  0
 13 19  1  0  0  0  0
 13  8  1  0  0  0  0
 16 14  1  0  0  0  0
 17 13  1  0  0  0  0
 17 16  1  0  0  0  0
 18  2  1  0  0  0  0
 18 31  1  0  0  0  0
 20 13  1  0  0  0  0
 21 17  2  0  0  0  0
 22 20  2  0  0  0  0
 23 22  1  0  0  0  0
 23 21  1  0  0  0  0
 24 25  1  0  0  0  0
 24 12  1  0  0  0  0
 26 27  2  0  0  0  0
 27 28  1  0  0  0  0
 28 29  1  0  0  0  0
 29 30  1  0  0  0  0
 31 32  1  0  0  0  0
 32 33  1  0  0  0  0
M  END
>  <minimizedAffinity>
-5.30153227

>  <CNNscore>
0.425316244

>  <CNNaffinity>
5.20253134

$$$$

 OpenBabel01022600583D

 33 37  0  0  1  0  0  0  0  0999 V2000
  -42.3490  -18.2630   25.5210 O   0  0  0  0  0  0  0  0  0  0  0  0
  -44.2030  -18.6240   24.1490 O   0  0  0  0  0  0  0  0  0  0  0  0
  -40.2880  -26.1920   30.4430 O   0  0  0  0  0  0  0  0  0  0  0  0
  -41.2010  -20.2980   24.8830 C   0  0  1  0  0  0  0  0  0  0  0  0
  -42.3960  -21.0930   25.4750 C   0  0  2  0  0  0  0  0  0  0  0  0
  -41.9150  -22.5050   25.7430 C   0  0  1  0  0  0  0  0  0  0  0  0
  -41.8930  -19.0210   24.3890 C   0  0  1  0  0  0  0  0  0  0  0  0
  -40.8240  -22.4230   26.8240 C   0  0  2  0  0  0  0  0  0  0  0  0
  -43.4840  -20.9330   24.4180 C   0  0  0  0  0  0  0  0  0  0  0  0
  -43.2030  -19.5700   23.7430 C   0  0  1  0  0  0  0  0  0  0  0  0
  -40.1990  -20.1060   26.0090 C   0  0  0  0  0  0  0  0  0  0  0  0
  -39.6850  -21.4990   26.4020 C   0  0  2  0  0  0  0  0  0  0  0  0
  -40.2710  -23.8270   27.0830 C   0  0  1  0  0  0  0  0  0  0  0  0
  -43.0740  -23.3660   26.2500 C   0  0  0  0  0  0  0  0  0  0  0  0
  -40.5770  -21.0580   23.7110 C   0  0  0  0  0  0  0  0  0  0  0  0
  -42.5890  -24.8010   26.4790 C   0  0  0  0  0  0  0  0  0  0  0  0
  -41.4010  -24.7530   27.4210 C   0  0  0  0  0  0  0  0  0  0  0  0
  -43.7520  -18.0370   25.3730 C   0  0  2  0  0  0  0  0  0  0  0  0
  -39.6310  -24.3240   25.7850 C   0  0  0  0  0  0  0  0  0  0  0  0
  -39.1960  -23.7860   28.1160 C   0  0  0  0  0  0  0  0  0  0  0  0
  -41.4120  -25.5150   28.5060 C   0  0  0  0  0  0  0  0  0  0  0  0
  -39.1890  -24.5340   29.2070 C   0  0  0  0  0  0  0  0  0  0  0  0
  -40.2970  -25.4710   29.4630 C   0  0  0  0  0  0  0  0  0  0  0  0
  -39.0070  -22.0780   25.2850 O   0  0  0  0  0  0  0  0  0  0  0  0
  -38.2940  -21.4700   25.0440 H   0  0  0  0  0  0  0  0  0  0  0  0
  -40.0750  -17.6180   23.8640 O   0  0  0  0  0  0  0  0  0  0  0  0
  -41.0380  -18.2140   23.4460 C   0  0  0  0  0  0  0  0  0  0  0  0
  -41.3870  -18.1500   21.9810 C   0  0  0  0  0  0  0  0  0  0  0  0
  -40.1870  -18.0780   21.2090 O   0  0  0  0  0  0  0  0  0  0  0  0
  -40.4550  -18.0390   20.2800 H   0  0  0  0  0  0  0  0  0  0  0  0
  -44.0270  -16.5330   25.3490 C   0  0  0  0  0  0  0  0  0  0  0  0
  -44.1670  -16.0620   23.9000 C   0  0  0  0  0  0  0  0  0  0  0  0
  -42.9900  -15.1520   23.5430 C   0  0  0  0  0  0  0  0  0  0  0  0
  2 18  1  0  0  0  0
  4 15  1  6  0  0  0
  4  5  1  0  0  0  0
  4 11  1  0  0  0  0
  5  9  1  6  0  0  0
  5  6  1  0  0  0  0
  6 14  1  1  0  0  0
  6  8  1  0  0  0  0
  7 27  1  6  0  0  0
  7  4  1  0  0  0  0
  7  1  1  0  0  0  0
  8 13  1  0  0  0  0
 10  2  1  0  0  0  0
 10  7  1  0  0  0  0
 10  9  1  0  0  0  0
 11 12  1  0  0  0  0
 12  8  1  0  0  0  0
 13 17  1  0  0  0  0
 13 20  1  0  0  0  0
 14 16  1  0  0  0  0
 16 17  1  0  0  0  0
 17 21  2  0  0  0  0
 18  1  1  0  0  0  0
 19 13  1  0  0  0  0
 20 22  2  0  0  0  0
 21 23  1  0  0  0  0
 22 23  1  0  0  0  0
 23  3  2  0  0  0  0
 24 12  1  0  0  0  0
 25 24  1  0  0  0  0
 27 26  2  0  0  0  0
 28 27  1  0  0  0  0
 29 28  1  0  0  0  0
 30 29  1  0  0  0  0
 31 18  1  0  0  0  0
 32 31  1  0  0  0  0
 33 32  1  0  0  0  0
M  END
>  <minimizedAffinity>
-4.82989216

>  <CNNscore>
0.399761289

>  <CNNaffinity>
5.41749763

$$$$
