
 OpenBabel01022601213D

 22 23  0  0  0  0  0  0  0  0999 V2000
  -41.9770  -18.1060   22.9880 C   0  0  0  0  0  0  0  0  0  0  0  0
  -42.7000  -16.9160   22.9470 C   0  0  0  0  0  0  0  0  0  0  0  0
  -41.8840  -18.8260   24.1840 C   0  0  0  0  0  0  0  0  0  0  0  0
  -43.3240  -16.4450   24.0990 C   0  0  0  0  0  0  0  0  0  0  0  0
  -42.5000  -18.3600   25.3240 C   0  0  0  0  0  0  0  0  0  0  0  0
  -43.2180  -17.1720   25.2950 C   0  0  0  0  0  0  0  0  0  0  0  0
  -40.2060  -19.9080   19.7400 C   0  0  0  0  0  0  0  0  0  0  0  0
  -41.0310  -20.2550   21.2880 S   0  0  0  0  0  0  0  0  0  0  0  0
  -40.2250  -18.5180   19.7480 C   0  0  0  0  0  0  0  0  0  0  0  0
  -41.3140  -18.6110   21.7690 C   0  0  0  0  0  0  0  0  0  0  0  0
  -39.6230  -17.7250   18.6170 C   0  0  0  0  0  0  0  0  0  0  0  0
  -40.7830  -17.9220   20.7670 N   0  0  0  0  0  0  0  0  0  0  0  0
  -39.6580  -20.8300   18.7450 C   0  0  0  0  0  0  0  0  0  0  0  0
  -40.1810  -20.8700   17.5030 O   0  0  0  0  0  0  0  0  0  0  0  0
  -38.7280  -21.5570   19.0370 O   0  0  0  0  0  0  0  0  0  0  0  0
  -44.0690  -15.2230   24.0660 C   0  0  0  0  0  0  0  0  0  0  0  0
  -44.6600  -14.2530   24.0380 N   0  0  0  0  0  0  0  0  0  0  0  0
  -43.8240  -16.7190   26.4210 O   0  0  0  0  0  0  0  0  0  0  0  0
  -44.5720  -17.8110   26.9570 C   0  0  0  0  0  0  0  0  0  0  0  0
  -44.6620  -17.6710   28.4780 C   0  0  0  0  0  0  0  0  0  0  0  0
  -43.7940  -18.7430   29.1410 C   0  0  0  0  0  0  0  0  0  0  0  0
  -44.1660  -16.2850   28.8930 C   0  0  0  0  0  0  0  0  0  0  0  0
  1  3  1  0  0  0  0
  2  1  2  0  0  0  0
  2  4  1  0  0  0  0
  3  5  2  0  0  0  0
  4  6  2  0  0  0  0
  6  5  1  0  0  0  0
  6 18  1  0  0  0  0
  7  9  2  0  0  0  0
  7  8  1  0  0  0  0
  8 10  1  0  0  0  0
  9 12  1  0  0  0  0
 10  1  1  0  0  0  0
 11  9  1  0  0  0  0
 12 10  2  0  0  0  0
 13 15  1  0  0  0  0
 13  7  1  0  0  0  0
 14 13  2  0  0  0  0
 16  4  1  0  0  0  0
 17 16  3  0  0  0  0
 18 19  1  0  0  0  0
 19 20  1  0  0  0  0
 20 22  1  0  0  0  0
 20 21  1  0  0  0  0
M  END
>  <minimizedAffinity>
-4.13611174

>  <CNNscore>
0.746197641

>  <CNNaffinity>
5.71770859

$$$$

 OpenBabel01022601213D

 22 23  0  0  0  0  0  0  0  0999 V2000
  -40.5040  -16.5780   18.1930 C   0  0  0  0  0  0  0  0  0  0  0  0
  -40.0910  -17.6920   18.9210 C   0  0  0  0  0  0  0  0  0  0  0  0
  -41.5230  -15.7570   18.6900 C   0  0  0  0  0  0  0  0  0  0  0  0
  -40.6990  -17.9870   20.1390 C   0  0  0  0  0  0  0  0  0  0  0  0
  -42.1230  -16.0500   19.8950 C   0  0  0  0  0  0  0  0  0  0  0  0
  -41.7230  -17.1600   20.6240 C   0  0  0  0  0  0  0  0  0  0  0  0
  -38.8560  -15.2880   14.6510 C   0  0  0  0  0  0  0  0  0  0  0  0
  -39.8000  -14.7390   16.0660 S   0  0  0  0  0  0  0  0  0  0  0  0
  -38.6820  -16.6310   14.9670 C   0  0  0  0  0  0  0  0  0  0  0  0
  -39.8640  -16.2600   16.9020 C   0  0  0  0  0  0  0  0  0  0  0  0
  -37.9260  -17.5550   14.0470 C   0  0  0  0  0  0  0  0  0  0  0  0
  -39.1940  -17.0640   16.0860 N   0  0  0  0  0  0  0  0  0  0  0  0
  -38.4000  -14.5360   13.4820 C   0  0  0  0  0  0  0  0  0  0  0  0
  -37.0940  -14.2290   13.3460 O   0  0  0  0  0  0  0  0  0  0  0  0
  -39.1980  -14.1910   12.6310 O   0  0  0  0  0  0  0  0  0  0  0  0
  -40.2800  -19.1300   20.8930 C   0  0  0  0  0  0  0  0  0  0  0  0
  -39.9470  -20.0360   21.4920 N   0  0  0  0  0  0  0  0  0  0  0  0
  -42.3190  -17.4430   21.8100 O   0  0  0  0  0  0  0  0  0  0  0  0
  -42.4840  -16.2000   22.4950 C   0  0  0  0  0  0  0  0  0  0  0  0
  -42.1430  -16.3840   23.9760 C   0  0  0  0  0  0  0  0  0  0  0  0
  -43.4330  -16.5700   24.7780 C   0  0  0  0  0  0  0  0  0  0  0  0
  -41.2550  -17.6190   24.1450 C   0  0  0  0  0  0  0  0  0  0  0  0
  1  3  2  0  0  0  0
  1  2  1  0  0  0  0
  2  4  2  0  0  0  0
  3  5  1  0  0  0  0
  4  6  1  0  0  0  0
  4 16  1  0  0  0  0
  5  6  2  0  0  0  0
  6 18  1  0  0  0  0
  7  9  2  0  0  0  0
  7  8  1  0  0  0  0
  8 10  1  0  0  0  0
  9 12  1  0  0  0  0
 10  1  1  0  0  0  0
 11  9  1  0  0  0  0
 12 10  2  0  0  0  0
 13  7  1  0  0  0  0
 14 13  1  0  0  0  0
 15 13  2  0  0  0  0
 16 17  3  0  0  0  0
 18 19  1  0  0  0  0
 19 20  1  0  0  0  0
 20 22  1  0  0  0  0
 20 21  1  0  0  0  0
M  END
>  <minimizedAffinity>
-4.18968058

>  <CNNscore>
0.61096549

>  <CNNaffinity>
4.86527586

$$$$

 OpenBabel01022601213D

 22 23  0  0  0  0  0  0  0  0999 V2000
  -40.8890  -17.2760   19.6700 C   0  0  0  0  0  0  0  0  0  0  0  0
  -41.9540  -17.0000   20.5240 C   0  0  0  0  0  0  0  0  0  0  0  0
  -40.1160  -18.4250   19.8670 C   0  0  0  0  0  0  0  0  0  0  0  0
  -42.2430  -17.8670   21.5750 C   0  0  0  0  0  0  0  0  0  0  0  0
  -40.4010  -19.2830   20.9060 C   0  0  0  0  0  0  0  0  0  0  0  0
  -41.4570  -19.0140   21.7660 C   0  0  0  0  0  0  0  0  0  0  0  0
  -39.9140  -15.0720   16.3360 C   0  0  0  0  0  0  0  0  0  0  0  0
  -39.9780  -16.7420   16.9700 S   0  0  0  0  0  0  0  0  0  0  0  0
  -40.3690  -14.3620   17.4400 C   0  0  0  0  0  0  0  0  0  0  0  0
  -40.5790  -16.3600   18.5540 C   0  0  0  0  0  0  0  0  0  0  0  0
  -40.4940  -12.8610   17.4030 C   0  0  0  0  0  0  0  0  0  0  0  0
  -40.6870  -15.0380   18.5100 N   0  0  0  0  0  0  0  0  0  0  0  0
  -39.4920  -14.5870   15.0210 C   0  0  0  0  0  0  0  0  0  0  0  0
  -38.1870  -14.3500   14.7770 O   0  0  0  0  0  0  0  0  0  0  0  0
  -40.3180  -14.4010   14.1480 O   0  0  0  0  0  0  0  0  0  0  0  0
  -43.3360  -17.5910   22.4570 C   0  0  0  0  0  0  0  0  0  0  0  0
  -44.2040  -17.3700   23.1570 N   0  0  0  0  0  0  0  0  0  0  0  0
  -41.7320  -19.8630   22.7870 O   0  0  0  0  0  0  0  0  0  0  0  0
  -40.4960  -20.1220   23.4540 C   0  0  0  0  0  0  0  0  0  0  0  0
  -40.4820  -19.4000   24.8030 C   0  0  0  0  0  0  0  0  0  0  0  0
  -39.6710  -20.2180   25.8110 C   0  0  0  0  0  0  0  0  0  0  0  0
  -39.8440  -18.0200   24.6360 C   0  0  0  0  0  0  0  0  0  0  0  0
  1  3  2  0  0  0  0
  1  2  1  0  0  0  0
  2  4  2  0  0  0  0
  3  5  1  0  0  0  0
  4  6  1  0  0  0  0
  4 16  1  0  0  0  0
  5  6  2  0  0  0  0
  6 18  1  0  0  0  0
  7  8  1  0  0  0  0
  7  9  2  0  0  0  0
  8 10  1  0  0  0  0
  9 12  1  0  0  0  0
 10  1  1  0  0  0  0
 11  9  1  0  0  0  0
 12 10  2  0  0  0  0
 13  7  1  0  0  0  0
 14 13  1  0  0  0  0
 15 13  2  0  0  0  0
 16 17  3  0  0  0  0
 18 19  1  0  0  0  0
 19 20  1  0  0  0  0
 20 21  1  0  0  0  0
 22 20  1  0  0  0  0
M  END
>  <minimizedAffinity>
-4.19953823

>  <CNNscore>
0.584839225

>  <CNNaffinity>
4.56886339

$$$$

 OpenBabel01022601213D

 22 23  0  0  0  0  0  0  0  0999 V2000
  -40.9800  -18.3630   23.2280 C   0  0  0  0  0  0  0  0  0  0  0  0
  -41.7370  -17.2910   23.6940 C   0  0  0  0  0  0  0  0  0  0  0  0
  -40.8530  -18.5820   21.8510 C   0  0  0  0  0  0  0  0  0  0  0  0
  -42.3710  -16.4440   22.7880 C   0  0  0  0  0  0  0  0  0  0  0  0
  -41.4790  -17.7440   20.9550 C   0  0  0  0  0  0  0  0  0  0  0  0
  -42.2410  -16.6770   21.4100 C   0  0  0  0  0  0  0  0  0  0  0  0
  -39.3860  -21.1730   25.7750 C   0  0  0  0  0  0  0  0  0  0  0  0
  -40.6790  -20.9150   24.5680 S   0  0  0  0  0  0  0  0  0  0  0  0
  -38.7780  -19.9230   25.7680 C   0  0  0  0  0  0  0  0  0  0  0  0
  -40.3060  -19.2640   24.1830 C   0  0  0  0  0  0  0  0  0  0  0  0
  -37.5960  -19.6270   26.6550 C   0  0  0  0  0  0  0  0  0  0  0  0
  -39.2640  -19.0140   24.9670 N   0  0  0  0  0  0  0  0  0  0  0  0
  -39.0620  -22.3650   26.5580 C   0  0  0  0  0  0  0  0  0  0  0  0
  -39.0460  -22.3030   27.9060 O   0  0  0  0  0  0  0  0  0  0  0  0
  -38.8100  -23.4130   25.9950 O   0  0  0  0  0  0  0  0  0  0  0  0
  -43.1510  -15.3400   23.2590 C   0  0  0  0  0  0  0  0  0  0  0  0
  -43.7720  -14.4640   23.6320 N   0  0  0  0  0  0  0  0  0  0  0  0
  -42.8550  -15.8560   20.5220 O   0  0  0  0  0  0  0  0  0  0  0  0
  -41.8330  -15.3160   19.6840 C   0  0  0  0  0  0  0  0  0  0  0  0
  -42.0370  -13.8060   19.5380 C   0  0  0  0  0  0  0  0  0  0  0  0
  -41.1300  -13.2730   18.4270 C   0  0  0  0  0  0  0  0  0  0  0  0
  -43.4980  -13.5190   19.1860 C   0  0  0  0  0  0  0  0  0  0  0  0
  1  2  1  0  0  0  0
  1 10  1  0  0  0  0
  3  1  2  0  0  0  0
  4 16  1  0  0  0  0
  4  2  2  0  0  0  0
  5  6  2  0  0  0  0
  5  3  1  0  0  0  0
  6  4  1  0  0  0  0
  7 13  1  0  0  0  0
  8  7  1  0  0  0  0
  9  7  2  0  0  0  0
  9 11  1  0  0  0  0
 10  8  1  0  0  0  0
 10 12  2  0  0  0  0
 12  9  1  0  0  0  0
 13 14  1  0  0  0  0
 15 13  2  0  0  0  0
 16 17  3  0  0  0  0
 18  6  1  0  0  0  0
 19 18  1  0  0  0  0
 20 19  1  0  0  0  0
 21 20  1  0  0  0  0
 22 20  1  0  0  0  0
M  END
>  <minimizedAffinity>
-4.88973808

>  <CNNscore>
0.52318877

>  <CNNaffinity>
4.90956306

$$$$

 OpenBabel01022601213D

 22 23  0  0  0  0  0  0  0  0999 V2000
  -40.8480  -18.6640   23.3500 C   0  0  0  0  0  0  0  0  0  0  0  0
  -41.5280  -17.5170   23.7560 C   0  0  0  0  0  0  0  0  0  0  0  0
  -40.7530  -18.9750   21.9900 C   0  0  0  0  0  0  0  0  0  0  0  0
  -42.1160  -16.6880   22.8030 C   0  0  0  0  0  0  0  0  0  0  0  0
  -41.3350  -18.1550   21.0480 C   0  0  0  0  0  0  0  0  0  0  0  0
  -42.0190  -17.0140   21.4420 C   0  0  0  0  0  0  0  0  0  0  0  0
  -39.3950  -21.4190   26.0380 C   0  0  0  0  0  0  0  0  0  0  0  0
  -40.6520  -21.1710   24.7920 S   0  0  0  0  0  0  0  0  0  0  0  0
  -38.7520  -20.1870   26.0000 C   0  0  0  0  0  0  0  0  0  0  0  0
  -40.2230  -19.5460   24.3550 C   0  0  0  0  0  0  0  0  0  0  0  0
  -37.5830  -19.8910   26.9030 C   0  0  0  0  0  0  0  0  0  0  0  0
  -39.1930  -19.2960   25.1540 N   0  0  0  0  0  0  0  0  0  0  0  0
  -39.1230  -22.5900   26.8720 C   0  0  0  0  0  0  0  0  0  0  0  0
  -38.9060  -23.7910   26.2980 O   0  0  0  0  0  0  0  0  0  0  0  0
  -39.0880  -22.4790   28.0830 O   0  0  0  0  0  0  0  0  0  0  0  0
  -42.8170  -15.5080   23.2110 C   0  0  0  0  0  0  0  0  0  0  0  0
  -43.3720  -14.5710   23.5350 N   0  0  0  0  0  0  0  0  0  0  0  0
  -42.5900  -16.2100   20.5100 O   0  0  0  0  0  0  0  0  0  0  0  0
  -41.7100  -16.1930   19.3850 C   0  0  0  0  0  0  0  0  0  0  0  0
  -41.8410  -14.8550   18.6540 C   0  0  0  0  0  0  0  0  0  0  0  0
  -42.0280  -13.7320   19.6760 C   0  0  0  0  0  0  0  0  0  0  0  0
  -40.5760  -14.5940   17.8350 C   0  0  0  0  0  0  0  0  0  0  0  0
  1  2  1  0  0  0  0
  1 10  1  0  0  0  0
  3  1  2  0  0  0  0
  4 16  1  0  0  0  0
  4  2  2  0  0  0  0
  5  6  2  0  0  0  0
  5  3  1  0  0  0  0
  6  4  1  0  0  0  0
  7 13  1  0  0  0  0
  8  7  1  0  0  0  0
  9  7  2  0  0  0  0
  9 11  1  0  0  0  0
 10  8  1  0  0  0  0
 10 12  2  0  0  0  0
 12  9  1  0  0  0  0
 13 15  1  0  0  0  0
 14 13  2  0  0  0  0
 16 17  3  0  0  0  0
 18  6  1  0  0  0  0
 19 18  1  0  0  0  0
 20 19  1  0  0  0  0
 20 21  1  0  0  0  0
 22 20  1  0  0  0  0
M  END
>  <minimizedAffinity>
-4.77016878

>  <CNNscore>
0.479776084

>  <CNNaffinity>
4.8595829

$$$$

 OpenBabel01022601213D

 22 23  0  0  0  0  0  0  0  0999 V2000
  -41.3650  -16.7760   19.8810 C   0  0  0  0  0  0  0  0  0  0  0  0
  -40.6010  -17.7980   19.3230 C   0  0  0  0  0  0  0  0  0  0  0  0
  -41.8460  -16.8980   21.1900 C   0  0  0  0  0  0  0  0  0  0  0  0
  -40.3230  -18.9410   20.0680 C   0  0  0  0  0  0  0  0  0  0  0  0
  -41.5710  -18.0290   21.9270 C   0  0  0  0  0  0  0  0  0  0  0  0
  -40.8160  -19.0550   21.3770 C   0  0  0  0  0  0  0  0  0  0  0  0
  -42.6090  -13.4730   17.7680 C   0  0  0  0  0  0  0  0  0  0  0  0
  -43.2070  -14.8670   18.7120 S   0  0  0  0  0  0  0  0  0  0  0  0
  -41.2370  -13.6870   17.8380 C   0  0  0  0  0  0  0  0  0  0  0  0
  -41.6620  -15.5620   19.0960 C   0  0  0  0  0  0  0  0  0  0  0  0
  -40.2670  -12.7490   17.1670 C   0  0  0  0  0  0  0  0  0  0  0  0
  -40.8170  -14.7280   18.5040 N   0  0  0  0  0  0  0  0  0  0  0  0
  -43.3550  -12.4050   17.1010 C   0  0  0  0  0  0  0  0  0  0  0  0
  -44.0190  -11.4880   17.8330 O   0  0  0  0  0  0  0  0  0  0  0  0
  -43.3730  -12.3430   15.8860 O   0  0  0  0  0  0  0  0  0  0  0  0
  -39.5380  -19.9970   19.5020 C   0  0  0  0  0  0  0  0  0  0  0  0
  -38.9170  -20.8350   19.0530 N   0  0  0  0  0  0  0  0  0  0  0  0
  -40.5490  -20.1660   22.1090 O   0  0  0  0  0  0  0  0  0  0  0  0
  -40.0780  -19.7200   23.3810 C   0  0  0  0  0  0  0  0  0  0  0  0
  -40.6330  -20.6310   24.4790 C   0  0  0  0  0  0  0  0  0  0  0  0
  -41.5000  -19.8080   25.4340 C   0  0  0  0  0  0  0  0  0  0  0  0
  -41.4790  -21.7360   23.8450 C   0  0  0  0  0  0  0  0  0  0  0  0
  1  3  1  0  0  0  0
  2  1  2  0  0  0  0
  2  4  1  0  0  0  0
  3  5  2  0  0  0  0
  4  6  2  0  0  0  0
  6  5  1  0  0  0  0
  6 18  1  0  0  0  0
  7  9  2  0  0  0  0
  7  8  1  0  0  0  0
  8 10  1  0  0  0  0
  9 12  1  0  0  0  0
 10  1  1  0  0  0  0
 11  9  1  0  0  0  0
 12 10  2  0  0  0  0
 13  7  1  0  0  0  0
 13 14  1  0  0  0  0
 15 13  2  0  0  0  0
 16  4  1  0  0  0  0
 17 16  3  0  0  0  0
 18 19  1  0  0  0  0
 19 20  1  0  0  0  0
 20 21  1  0  0  0  0
 22 20  1  0  0  0  0
M  END
>  <minimizedAffinity>
-4.16832781

>  <CNNscore>
0.432554603

>  <CNNaffinity>
4.08566713

$$$$

 OpenBabel01022601213D

 22 23  0  0  0  0  0  0  0  0999 V2000
  -41.5840  -17.9590   23.6060 C   0  0  0  0  0  0  0  0  0  0  0  0
  -42.4120  -16.9240   24.0370 C   0  0  0  0  0  0  0  0  0  0  0  0
  -41.3320  -18.1290   22.2410 C   0  0  0  0  0  0  0  0  0  0  0  0
  -42.9900  -16.0660   23.1050 C   0  0  0  0  0  0  0  0  0  0  0  0
  -41.9040  -17.2800   21.3190 C   0  0  0  0  0  0  0  0  0  0  0  0
  -42.7350  -16.2500   21.7370 C   0  0  0  0  0  0  0  0  0  0  0  0
  -39.4870  -20.3790   26.1880 C   0  0  0  0  0  0  0  0  0  0  0  0
  -39.2850  -19.2060   24.8550 S   0  0  0  0  0  0  0  0  0  0  0  0
  -40.8720  -20.4030   26.2990 C   0  0  0  0  0  0  0  0  0  0  0  0
  -40.9680  -18.8710   24.5900 C   0  0  0  0  0  0  0  0  0  0  0  0
  -41.5570  -21.2770   27.3180 C   0  0  0  0  0  0  0  0  0  0  0  0
  -41.5600  -19.6430   25.4920 N   0  0  0  0  0  0  0  0  0  0  0  0
  -38.4760  -21.1150   26.9480 C   0  0  0  0  0  0  0  0  0  0  0  0
  -38.8390  -22.1670   27.7110 O   0  0  0  0  0  0  0  0  0  0  0  0
  -37.3080  -20.7820   26.8880 O   0  0  0  0  0  0  0  0  0  0  0  0
  -43.8420  -15.0000   23.5390 C   0  0  0  0  0  0  0  0  0  0  0  0
  -44.5190  -14.1550   23.8830 N   0  0  0  0  0  0  0  0  0  0  0  0
  -43.2950  -15.4180   20.8240 O   0  0  0  0  0  0  0  0  0  0  0  0
  -42.3500  -15.2720   19.7640 C   0  0  0  0  0  0  0  0  0  0  0  0
  -42.1390  -13.7850   19.4700 C   0  0  0  0  0  0  0  0  0  0  0  0
  -41.0310  -13.6230   18.4260 C   0  0  0  0  0  0  0  0  0  0  0  0
  -43.4370  -13.1810   18.9320 C   0  0  0  0  0  0  0  0  0  0  0  0
  1  2  1  0  0  0  0
  1 10  1  0  0  0  0
  3  1  2  0  0  0  0
  4 16  1  0  0  0  0
  4  2  2  0  0  0  0
  5  6  2  0  0  0  0
  5  3  1  0  0  0  0
  6  4  1  0  0  0  0
  7  9  2  0  0  0  0
  7 13  1  0  0  0  0
  8  7  1  0  0  0  0
  9 11  1  0  0  0  0
 10  8  1  0  0  0  0
 10 12  2  0  0  0  0
 12  9  1  0  0  0  0
 13 14  1  0  0  0  0
 15 13  2  0  0  0  0
 16 17  3  0  0  0  0
 18  6  1  0  0  0  0
 19 18  1  0  0  0  0
 20 19  1  0  0  0  0
 21 20  1  0  0  0  0
 22 20  1  0  0  0  0
M  END
>  <minimizedAffinity>
-4.59423208

>  <CNNscore>
0.401990384

>  <CNNaffinity>
4.88004065

$$$$

 OpenBabel01022601213D

 22 23  0  0  0  0  0  0  0  0999 V2000
  -40.5120  -16.7260   18.6350 C   0  0  0  0  0  0  0  0  0  0  0  0
  -40.8220  -15.4090   18.3010 C   0  0  0  0  0  0  0  0  0  0  0  0
  -39.8210  -17.5330   17.7240 C   0  0  0  0  0  0  0  0  0  0  0  0
  -40.4480  -14.9030   17.0590 C   0  0  0  0  0  0  0  0  0  0  0  0
  -39.4510  -17.0320   16.4960 C   0  0  0  0  0  0  0  0  0  0  0  0
  -39.7600  -15.7240   16.1510 C   0  0  0  0  0  0  0  0  0  0  0  0
  -41.9330  -17.9530   22.2950 C   0  0  0  0  0  0  0  0  0  0  0  0
  -42.2330  -16.7970   20.9660 S   0  0  0  0  0  0  0  0  0  0  0  0
  -40.8020  -18.6050   21.8160 C   0  0  0  0  0  0  0  0  0  0  0  0
  -40.9050  -17.2670   19.9500 C   0  0  0  0  0  0  0  0  0  0  0  0
  -40.1420  -19.7030   22.6080 C   0  0  0  0  0  0  0  0  0  0  0  0
  -40.3330  -18.2340   20.6560 N   0  0  0  0  0  0  0  0  0  0  0  0
  -42.6680  -18.1540   23.5450 C   0  0  0  0  0  0  0  0  0  0  0  0
  -42.3420  -17.4380   24.6410 O   0  0  0  0  0  0  0  0  0  0  0  0
  -43.5740  -18.9630   23.5940 O   0  0  0  0  0  0  0  0  0  0  0  0
  -40.7630  -13.5510   16.7080 C   0  0  0  0  0  0  0  0  0  0  0  0
  -41.0120  -12.4780   16.4310 N   0  0  0  0  0  0  0  0  0  0  0  0
  -39.3930  -15.2360   14.9400 O   0  0  0  0  0  0  0  0  0  0  0  0
  -37.9650  -15.2280   14.9140 C   0  0  0  0  0  0  0  0  0  0  0  0
  -37.4790  -15.5150   13.4910 C   0  0  0  0  0  0  0  0  0  0  0  0
  -37.1010  -14.2000   12.8060 C   0  0  0  0  0  0  0  0  0  0  0  0
  -36.2550  -16.4310   13.5450 C   0  0  0  0  0  0  0  0  0  0  0  0
  1 10  1  0  0  0  0
  2  1  1  0  0  0  0
  3  1  2  0  0  0  0
  4  2  2  0  0  0  0
  5  3  1  0  0  0  0
  6  5  2  0  0  0  0
  6  4  1  0  0  0  0
  7 13  1  0  0  0  0
  8  7  1  0  0  0  0
  9  7  2  0  0  0  0
  9 11  1  0  0  0  0
 10 12  2  0  0  0  0
 10  8  1  0  0  0  0
 12  9  1  0  0  0  0
 13 15  2  0  0  0  0
 13 14  1  0  0  0  0
 16  4  1  0  0  0  0
 17 16  3  0  0  0  0
 18  6  1  0  0  0  0
 19 18  1  0  0  0  0
 20 22  1  0  0  0  0
 20 19  1  0  0  0  0
 21 20  1  0  0  0  0
M  END
>  <minimizedAffinity>
-4.31625557

>  <CNNscore>
0.385673046

>  <CNNaffinity>
4.01256561

$$$$

 OpenBabel01022601213D

 22 23  0  0  0  0  0  0  0  0999 V2000
  -40.7120  -16.6090   18.2680 C   0  0  0  0  0  0  0  0  0  0  0  0
  -40.0740  -17.8450   18.1890 C   0  0  0  0  0  0  0  0  0  0  0  0
  -41.3730  -16.2380   19.4440 C   0  0  0  0  0  0  0  0  0  0  0  0
  -40.1020  -18.7090   19.2810 C   0  0  0  0  0  0  0  0  0  0  0  0
  -41.4010  -17.0930   20.5240 C   0  0  0  0  0  0  0  0  0  0  0  0
  -40.7730  -18.3290   20.4530 C   0  0  0  0  0  0  0  0  0  0  0  0
  -41.0340  -13.9210   15.1700 C   0  0  0  0  0  0  0  0  0  0  0  0
  -41.9140  -14.5840   16.5780 S   0  0  0  0  0  0  0  0  0  0  0  0
  -39.8470  -14.6410   15.2500 C   0  0  0  0  0  0  0  0  0  0  0  0
  -40.6860  -15.6890   17.1150 C   0  0  0  0  0  0  0  0  0  0  0  0
  -38.7440  -14.4360   14.2450 C   0  0  0  0  0  0  0  0  0  0  0  0
  -39.7200  -15.4990   16.2250 N   0  0  0  0  0  0  0  0  0  0  0  0
  -41.4490  -12.9080   14.2000 C   0  0  0  0  0  0  0  0  0  0  0  0
  -41.6550  -11.6360   14.5990 O   0  0  0  0  0  0  0  0  0  0  0  0
  -41.6050  -13.2120   13.0320 O   0  0  0  0  0  0  0  0  0  0  0  0
  -39.4480  -19.9810   19.2090 C   0  0  0  0  0  0  0  0  0  0  0  0
  -38.9290  -20.9900   19.1500 N   0  0  0  0  0  0  0  0  0  0  0  0
  -40.8030  -19.1660   21.5200 O   0  0  0  0  0  0  0  0  0  0  0  0
  -41.5650  -18.5130   22.5360 C   0  0  0  0  0  0  0  0  0  0  0  0
  -40.7950  -18.5550   23.8580 C   0  0  0  0  0  0  0  0  0  0  0  0
  -41.7780  -18.7330   25.0170 C   0  0  0  0  0  0  0  0  0  0  0  0
  -39.8110  -19.7260   23.8390 C   0  0  0  0  0  0  0  0  0  0  0  0
  1  3  1  0  0  0  0
  2  1  2  0  0  0  0
  2  4  1  0  0  0  0
  3  5  2  0  0  0  0
  4  6  2  0  0  0  0
  6  5  1  0  0  0  0
  6 18  1  0  0  0  0
  7  9  2  0  0  0  0
  7  8  1  0  0  0  0
  8 10  1  0  0  0  0
  9 12  1  0  0  0  0
 10  1  1  0  0  0  0
 11  9  1  0  0  0  0
 12 10  2  0  0  0  0
 13 14  1  0  0  0  0
 13  7  1  0  0  0  0
 15 13  2  0  0  0  0
 16  4  1  0  0  0  0
 17 16  3  0  0  0  0
 18 19  1  0  0  0  0
 19 20  1  0  0  0  0
 20 21  1  0  0  0  0
 22 20  1  0  0  0  0
M  END
>  <minimizedAffinity>
-4.09342957

>  <CNNscore>
0.37108469

>  <CNNaffinity>
4.24364138

$$$$
