
 OpenBabel12312517453D

 32 36  0  0  1  0  0  0  0  0999 V2000
  -41.1610  -18.6020   24.9480 C   0  0  0  0  0  0  0  0  0  0  0  0
  -40.3280  -19.8730   24.6630 C   0  0  1  0  0  0  0  0  0  0  0  0
  -38.8100  -19.4830   24.7610 C   0  0  0  0  0  0  0  0  0  0  0  0
  -38.1900  -19.7580   26.1220 C   0  0  0  0  0  0  0  0  0  0  0  0
  -38.2700  -21.2410   26.4940 C   0  0  2  0  0  0  0  0  0  0  0  0
  -39.4790  -21.9650   25.8850 C   0  0  0  0  0  0  0  0  0  0  0  0
  -40.6830  -21.0100   25.7160 C   0  0  2  0  0  0  0  0  0  0  0  0
  -41.9640  -21.8040   25.3730 C   0  0  0  0  0  0  0  0  0  0  0  0
  -42.1130  -22.2310   23.9150 C   0  0  0  0  0  0  0  0  0  0  0  0
  -42.0030  -20.9970   23.0230 C   0  0  1  0  0  0  0  0  0  0  0  0
  -40.5790  -20.4010   23.1980 C   0  0  1  0  0  0  0  0  0  0  0  0
  -40.2510  -19.4330   22.0450 C   0  0  0  0  0  0  0  0  0  0  0  0
  -40.2780  -20.1100   20.6500 C   0  0  0  0  0  0  0  0  0  0  0  0
  -41.2050  -21.3520   20.5610 C   0  0  2  0  0  0  0  0  0  0  0  0
  -40.3600  -22.6350   20.8330 C   0  0  0  0  0  0  0  0  0  0  0  0
  -41.9290  -21.6320   19.1860 C   0  0  1  0  0  0  0  0  0  0  0  0
  -43.2970  -22.2700   19.5940 C   0  0  0  0  0  0  0  0  0  0  0  0
  -43.3610  -22.2750   21.1320 C   0  0  0  0  0  0  0  0  0  0  0  0
  -42.3960  -21.1660   21.5340 C   0  0  1  0  0  0  0  0  0  0  0  0
  -40.9860  -20.4260   26.9990 O   0  0  0  0  0  0  0  0  0  0  0  0
  -40.2430  -20.5760   27.6190 H   0  0  0  0  0  0  0  0  0  0  0  0
  -38.3750  -21.3100   27.9190 O   0  0  0  0  0  0  0  0  0  0  0  0
  -38.1650  -22.2230   28.1840 H   0  0  0  0  0  0  0  0  0  0  0  0
  -43.0580  -19.9290   21.1740 O   0  0  0  0  0  0  0  0  0  0  0  0
  -43.8570  -19.8400   21.7210 H   0  0  0  0  0  0  0  0  0  0  0  0
  -42.0100  -20.4940   18.1790 C   0  0  0  0  0  0  0  0  0  0  0  0
  -40.9940  -20.4500   17.1490 C   0  0  0  0  0  0  0  0  0  0  0  0
  -42.9490  -19.5400   18.1400 C   0  0  0  0  0  0  0  0  0  0  0  0
  -41.0000  -19.4920   16.2160 C   0  0  0  0  0  0  0  0  0  0  0  0
  -42.9990  -18.5160   17.1800 O   0  0  0  0  0  0  0  0  0  0  0  0
  -42.0460  -18.4530   16.2010 C   0  0  0  0  0  0  0  0  0  0  0  0
  -42.0400  -17.5830   15.3370 O   0  0  0  0  0  0  0  0  0  0  0  0
  2  3  1  0  0  0  0
  2  1  1  1  0  0  0
  2  7  1  0  0  0  0
  3  4  1  0  0  0  0
  4  5  1  0  0  0  0
  5 22  1  1  0  0  0
  6  5  1  0  0  0  0
  7  6  1  0  0  0  0
  7 20  1  1  0  0  0
  8  7  1  0  0  0  0
  9  8  1  0  0  0  0
 10 11  1  0  0  0  0
 10  9  1  1  0  0  0
 11 12  1  6  0  0  0
 11  2  1  0  0  0  0
 13 12  1  0  0  0  0
 14 13  1  0  0  0  0
 14 15  1  1  0  0  0
 14 19  1  0  0  0  0
 16 26  1  1  0  0  0
 16 17  1  0  0  0  0
 16 14  1  0  0  0  0
 17 18  1  0  0  0  0
 18 19  1  0  0  0  0
 19 24  1  6  0  0  0
 19 10  1  0  0  0  0
 20 21  1  0  0  0  0
 22 23  1  0  0  0  0
 24 25  1  0  0  0  0
 27 26  1  0  0  0  0
 28 26  2  0  0  0  0
 29 27  2  0  0  0  0
 30 28  1  0  0  0  0
 31 29  1  0  0  0  0
 31 30  1  0  0  0  0
 32 31  2  0  0  0  0
M  END
>  <minimizedAffinity>
-5.54439068

>  <CNNscore>
0.612384379

>  <CNNaffinity>
6.75614023

$$$$

 OpenBabel12312517453D

 32 36  0  0  1  0  0  0  0  0999 V2000
  -39.8050  -17.8430   18.4550 C   0  0  0  0  0  0  0  0  0  0  0  0
  -41.2580  -17.6830   18.9620 C   0  0  1  0  0  0  0  0  0  0  0  0
  -41.4890  -16.1630   19.2800 C   0  0  0  0  0  0  0  0  0  0  0  0
  -42.1320  -15.3870   18.1420 C   0  0  0  0  0  0  0  0  0  0  0  0
  -43.5030  -15.9550   17.7680 C   0  0  2  0  0  0  0  0  0  0  0  0
  -43.6370  -17.4620   18.0280 C   0  0  0  0  0  0  0  0  0  0  0  0
  -42.2830  -18.1870   17.8570 C   0  0  2  0  0  0  0  0  0  0  0  0
  -42.4850  -19.7200   17.8420 C   0  0  0  0  0  0  0  0  0  0  0  0
  -42.6550  -20.3840   19.2060 C   0  0  0  0  0  0  0  0  0  0  0  0
  -41.4650  -20.0180   20.0880 C   0  0  1  0  0  0  0  0  0  0  0  0
  -41.4810  -18.4800   20.3060 C   0  0  1  0  0  0  0  0  0  0  0  0
  -40.5890  -18.0910   21.5000 C   0  0  0  0  0  0  0  0  0  0  0  0
  -41.0420  -18.7310   22.8380 C   0  0  0  0  0  0  0  0  0  0  0  0
  -41.8190  -20.0650   22.6760 C   0  0  2  0  0  0  0  0  0  0  0  0
  -43.3490  -19.7620   22.6510 C   0  0  0  0  0  0  0  0  0  0  0  0
  -41.6450  -21.1590   23.8030 C   0  0  1  0  0  0  0  0  0  0  0  0
  -41.7540  -22.5180   23.0400 C   0  0  0  0  0  0  0  0  0  0  0  0
  -41.9070  -22.1950   21.5430 C   0  0  0  0  0  0  0  0  0  0  0  0
  -41.3030  -20.8020   21.4150 C   0  0  1  0  0  0  0  0  0  0  0  0
  -41.7760  -17.9040   16.5380 O   0  0  0  0  0  0  0  0  0  0  0  0
  -42.2670  -17.1530   16.1450 H   0  0  0  0  0  0  0  0  0  0  0  0
  -43.6860  -15.7210   16.3680 O   0  0  0  0  0  0  0  0  0  0  0  0
  -44.6340  -15.8330   16.1750 H   0  0  0  0  0  0  0  0  0  0  0  0
  -39.8750  -20.9840   21.5750 O   0  0  0  0  0  0  0  0  0  0  0  0
  -39.5500  -21.5180   20.8300 H   0  0  0  0  0  0  0  0  0  0  0  0
  -40.4560  -21.0270   24.7440 C   0  0  0  0  0  0  0  0  0  0  0  0
  -39.6190  -19.8560   24.5920 C   0  0  0  0  0  0  0  0  0  0  0  0
  -40.1240  -21.8820   25.7200 C   0  0  0  0  0  0  0  0  0  0  0  0
  -38.5640  -19.6550   25.3880 C   0  0  0  0  0  0  0  0  0  0  0  0
  -39.0270  -21.7130   26.5820 O   0  0  0  0  0  0  0  0  0  0  0  0
  -38.2210  -20.6160   26.4520 C   0  0  0  0  0  0  0  0  0  0  0  0
  -37.2510  -20.4160   27.1750 O   0  0  0  0  0  0  0  0  0  0  0  0
  2  1  1  6  0  0  0
  2  3  1  0  0  0  0
  2 11  1  0  0  0  0
  4  3  1  0  0  0  0
  5 22  1  6  0  0  0
  5  6  1  0  0  0  0
  5  4  1  0  0  0  0
  7 20  1  6  0  0  0
  7  6  1  0  0  0  0
  7  2  1  0  0  0  0
  8  7  1  0  0  0  0
  8  9  1  0  0  0  0
 10  9  1  1  0  0  0
 10 11  1  0  0  0  0
 10 19  1  0  0  0  0
 11 12  1  1  0  0  0
 12 13  1  0  0  0  0
 14 15  1  6  0  0  0
 14 13  1  0  0  0  0
 14 16  1  0  0  0  0
 16 26  1  6  0  0  0
 17 16  1  0  0  0  0
 18 17  1  0  0  0  0
 19 18  1  0  0  0  0
 19 24  1  1  0  0  0
 19 14  1  0  0  0  0
 21 20  1  0  0  0  0
 23 22  1  0  0  0  0
 25 24  1  0  0  0  0
 26 28  2  0  0  0  0
 27 26  1  0  0  0  0
 27 29  2  0  0  0  0
 28 30  1  0  0  0  0
 29 31  1  0  0  0  0
 31 30  1  0  0  0  0
 31 32  2  0  0  0  0
M  END
>  <minimizedAffinity>
-5.47384596

>  <CNNscore>
0.539913893

>  <CNNaffinity>
5.97330999

$$$$

 OpenBabel12312517453D

 32 36  0  0  1  0  0  0  0  0999 V2000
  -41.0310  -17.0600   24.1850 C   0  0  0  0  0  0  0  0  0  0  0  0
  -42.3760  -17.3280   23.4700 C   0  0  1  0  0  0  0  0  0  0  0  0
  -43.5110  -17.2840   24.5540 C   0  0  0  0  0  0  0  0  0  0  0  0
  -44.1990  -15.9340   24.6700 C   0  0  0  0  0  0  0  0  0  0  0  0
  -44.8550  -15.5130   23.3530 C   0  0  2  0  0  0  0  0  0  0  0  0
  -44.1470  -16.0660   22.1080 C   0  0  0  0  0  0  0  0  0  0  0  0
  -42.6290  -16.2310   22.3480 C   0  0  2  0  0  0  0  0  0  0  0  0
  -41.8950  -16.5150   21.0170 C   0  0  0  0  0  0  0  0  0  0  0  0
  -41.9590  -17.9540   20.5130 C   0  0  0  0  0  0  0  0  0  0  0  0
  -41.4460  -18.8860   21.6070 C   0  0  1  0  0  0  0  0  0  0  0  0
  -42.4000  -18.7690   22.8270 C   0  0  1  0  0  0  0  0  0  0  0  0
  -42.2050  -19.9600   23.7860 C   0  0  0  0  0  0  0  0  0  0  0  0
  -42.4980  -21.3320   23.1250 C   0  0  0  0  0  0  0  0  0  0  0  0
  -42.2940  -21.3570   21.5860 C   0  0  2  0  0  0  0  0  0  0  0  0
  -43.6590  -21.0690   20.8890 C   0  0  0  0  0  0  0  0  0  0  0  0
  -41.7860  -22.7020   20.9330 C   0  0  1  0  0  0  0  0  0  0  0  0
  -40.9060  -22.2370   19.7280 C   0  0  0  0  0  0  0  0  0  0  0  0
  -40.8670  -20.6980   19.7550 C   0  0  0  0  0  0  0  0  0  0  0  0
  -41.1720  -20.3580   21.2080 C   0  0  1  0  0  0  0  0  0  0  0  0
  -42.0910  -14.9590   22.7630 O   0  0  0  0  0  0  0  0  0  0  0  0
  -42.8190  -14.3560   23.0180 H   0  0  0  0  0  0  0  0  0  0  0  0
  -44.8100  -14.0840   23.2990 O   0  0  0  0  0  0  0  0  0  0  0  0
  -45.4410  -13.7970   22.6150 H   0  0  0  0  0  0  0  0  0  0  0  0
  -39.9880  -20.7380   21.9510 O   0  0  0  0  0  0  0  0  0  0  0  0
  -39.2520  -20.1720   21.6620 H   0  0  0  0  0  0  0  0  0  0  0  0
  -41.1510  -23.7410   21.8470 C   0  0  0  0  0  0  0  0  0  0  0  0
  -41.2320  -23.5040   23.2730 C   0  0  0  0  0  0  0  0  0  0  0  0
  -40.5450  -24.8700   21.4570 C   0  0  0  0  0  0  0  0  0  0  0  0
  -40.7140  -24.3750   24.1460 C   0  0  0  0  0  0  0  0  0  0  0  0
  -39.9880  -25.8140   22.3360 O   0  0  0  0  0  0  0  0  0  0  0  0
  -40.0500  -25.6070   23.6860 C   0  0  0  0  0  0  0  0  0  0  0  0
  -39.5820  -26.3970   24.5000 O   0  0  0  0  0  0  0  0  0  0  0  0
  2  1  1  1  0  0  0
  2  3  1  0  0  0  0
  3  4  1  0  0  0  0
  5 22  1  6  0  0  0
  5  4  1  0  0  0  0
  6  7  1  0  0  0  0
  6  5  1  0  0  0  0
  7 20  1  1  0  0  0
  7  2  1  0  0  0  0
  8  7  1  0  0  0  0
  9  8  1  0  0  0  0
 10  9  1  6  0  0  0
 10 11  1  0  0  0  0
 11  2  1  0  0  0  0
 11 12  1  1  0  0  0
 13 12  1  0  0  0  0
 14 15  1  6  0  0  0
 14 13  1  0  0  0  0
 16 14  1  0  0  0  0
 16 26  1  1  0  0  0
 17 18  1  0  0  0  0
 17 16  1  0  0  0  0
 18 19  1  0  0  0  0
 19 14  1  0  0  0  0
 19 10  1  0  0  0  0
 19 24  1  1  0  0  0
 20 21  1  0  0  0  0
 23 22  1  0  0  0  0
 25 24  1  0  0  0  0
 26 27  1  0  0  0  0
 27 29  2  0  0  0  0
 28 26  2  0  0  0  0
 28 30  1  0  0  0  0
 30 31  1  0  0  0  0
 31 29  1  0  0  0  0
 31 32  2  0  0  0  0
M  END
>  <minimizedAffinity>
-4.84028816

>  <CNNscore>
0.513415337

>  <CNNaffinity>
5.84266281

$$$$

 OpenBabel12312517453D

 32 36  0  0  1  0  0  0  0  0999 V2000
  -39.4850  -24.1290   25.3270 C   0  0  0  0  0  0  0  0  0  0  0  0
  -40.9620  -23.7100   25.5130 C   0  0  1  0  0  0  0  0  0  0  0  0
  -41.8620  -24.8600   24.9350 C   0  0  0  0  0  0  0  0  0  0  0  0
  -42.3370  -25.8550   25.9820 C   0  0  0  0  0  0  0  0  0  0  0  0
  -43.1660  -25.1770   27.0760 C   0  0  2  0  0  0  0  0  0  0  0  0
  -42.7770  -23.7130   27.3260 C   0  0  0  0  0  0  0  0  0  0  0  0
  -41.2750  -23.4730   27.0530 C   0  0  2  0  0  0  0  0  0  0  0  0
  -40.8420  -22.0830   27.5730 C   0  0  0  0  0  0  0  0  0  0  0  0
  -41.1840  -20.8980   26.6740 C   0  0  0  0  0  0  0  0  0  0  0  0
  -40.6010  -21.1450   25.2850 C   0  0  1  0  0  0  0  0  0  0  0  0
  -41.2900  -22.4040   24.6900 C   0  0  1  0  0  0  0  0  0  0  0  0
  -41.0750  -22.4710   23.1660 C   0  0  0  0  0  0  0  0  0  0  0  0
  -41.6600  -21.2490   22.4100 C   0  0  0  0  0  0  0  0  0  0  0  0
  -41.7490  -19.9550   23.2630 C   0  0  2  0  0  0  0  0  0  0  0  0
  -43.1710  -19.8620   23.8960 C   0  0  0  0  0  0  0  0  0  0  0  0
  -41.5470  -18.5730   22.5240 C   0  0  1  0  0  0  0  0  0  0  0  0
  -40.8530  -17.6650   23.5910 C   0  0  0  0  0  0  0  0  0  0  0  0
  -40.6120  -18.5270   24.8420 C   0  0  0  0  0  0  0  0  0  0  0  0
  -40.5970  -19.9510   24.2990 C   0  0  1  0  0  0  0  0  0  0  0  0
  -40.5110  -24.3870   27.8650 O   0  0  0  0  0  0  0  0  0  0  0  0
  -41.0950  -25.0890   28.2170 H   0  0  0  0  0  0  0  0  0  0  0  0
  -42.9480  -25.9130   28.2840 O   0  0  0  0  0  0  0  0  0  0  0  0
  -43.6530  -25.6650   28.9080 H   0  0  0  0  0  0  0  0  0  0  0  0
  -39.3540  -20.0700   23.5640 O   0  0  0  0  0  0  0  0  0  0  0  0
  -38.6180  -19.9850   24.1930 H   0  0  0  0  0  0  0  0  0  0  0  0
  -40.8930  -18.5890   21.1510 C   0  0  0  0  0  0  0  0  0  0  0  0
  -41.1510  -17.4590   20.2830 C   0  0  0  0  0  0  0  0  0  0  0  0
  -40.0790  -19.5400   20.6750 C   0  0  0  0  0  0  0  0  0  0  0  0
  -40.6030  -17.3860   19.0650 C   0  0  0  0  0  0  0  0  0  0  0  0
  -39.4790  -19.5070   19.4050 O   0  0  0  0  0  0  0  0  0  0  0  0
  -39.7130  -18.4510   18.5680 C   0  0  0  0  0  0  0  0  0  0  0  0
  -39.2160  -18.3680   17.4500 O   0  0  0  0  0  0  0  0  0  0  0  0
  2  1  1  6  0  0  0
  2  7  1  0  0  0  0
  3  2  1  0  0  0  0
  3  4  1  0  0  0  0
  4  5  1  0  0  0  0
  5  6  1  0  0  0  0
  5 22  1  1  0  0  0
  7  6  1  0  0  0  0
  7  8  1  0  0  0  0
  7 20  1  1  0  0  0
  9  8  1  0  0  0  0
 10  9  1  1  0  0  0
 11 12  1  6  0  0  0
 11 10  1  0  0  0  0
 11  2  1  0  0  0  0
 13 12  1  0  0  0  0
 13 14  1  0  0  0  0
 14 15  1  1  0  0  0
 14 19  1  0  0  0  0
 16 26  1  6  0  0  0
 16 14  1  0  0  0  0
 16 17  1  0  0  0  0
 17 18  1  0  0  0  0
 19 24  1  6  0  0  0
 19 18  1  0  0  0  0
 19 10  1  0  0  0  0
 20 21  1  0  0  0  0
 22 23  1  0  0  0  0
 24 25  1  0  0  0  0
 27 26  1  0  0  0  0
 28 26  2  0  0  0  0
 29 27  2  0  0  0  0
 30 28  1  0  0  0  0
 31 29  1  0  0  0  0
 31 30  1  0  0  0  0
 32 31  2  0  0  0  0
M  END
>  <minimizedAffinity>
-5.30927753

>  <CNNscore>
0.497857869

>  <CNNaffinity>
5.57626104

$$$$

 OpenBabel12312517453D

 32 36  0  0  1  0  0  0  0  0999 V2000
  -41.8160  -23.2970   18.9960 C   0  0  0  0  0  0  0  0  0  0  0  0
  -41.7630  -21.8130   18.5640 C   0  0  1  0  0  0  0  0  0  0  0  0
  -40.5270  -21.6360   17.6100 C   0  0  0  0  0  0  0  0  0  0  0  0
  -40.8720  -21.7310   16.1330 C   0  0  0  0  0  0  0  0  0  0  0  0
  -41.8850  -20.6630   15.7140 C   0  0  2  0  0  0  0  0  0  0  0  0
  -42.8380  -20.2420   16.8430 C   0  0  0  0  0  0  0  0  0  0  0  0
  -43.1070  -21.4090   17.8190 C   0  0  2  0  0  0  0  0  0  0  0  0
  -44.2730  -21.0620   18.7740 C   0  0  0  0  0  0  0  0  0  0  0  0
  -43.9200  -20.1680   19.9600 C   0  0  0  0  0  0  0  0  0  0  0  0
  -42.7730  -20.8060   20.7380 C   0  0  1  0  0  0  0  0  0  0  0  0
  -41.5320  -20.8670   19.8050 C   0  0  1  0  0  0  0  0  0  0  0  0
  -40.2480  -21.0980   20.6250 C   0  0  0  0  0  0  0  0  0  0  0  0
  -39.9690  -19.9750   21.6580 C   0  0  0  0  0  0  0  0  0  0  0  0
  -41.2400  -19.2260   22.1450 C   0  0  2  0  0  0  0  0  0  0  0  0
  -41.4460  -17.9530   21.2670 C   0  0  0  0  0  0  0  0  0  0  0  0
  -41.2550  -18.6960   23.6320 C   0  0  1  0  0  0  0  0  0  0  0  0
  -42.7520  -18.8150   24.0680 C   0  0  0  0  0  0  0  0  0  0  0  0
  -43.5210  -19.4550   22.8980 C   0  0  0  0  0  0  0  0  0  0  0  0
  -42.4420  -20.2040   22.1260 C   0  0  1  0  0  0  0  0  0  0  0  0
  -43.6160  -22.5280   17.0640 O   0  0  0  0  0  0  0  0  0  0  0  0
  -43.4590  -22.3850   16.1090 H   0  0  0  0  0  0  0  0  0  0  0  0
  -42.6650  -21.2180   14.6510 O   0  0  0  0  0  0  0  0  0  0  0  0
  -43.1220  -20.4810   14.2080 H   0  0  0  0  0  0  0  0  0  0  0  0
  -42.0890  -21.3370   22.9570 O   0  0  0  0  0  0  0  0  0  0  0  0
  -42.8640  -21.9200   23.0230 H   0  0  0  0  0  0  0  0  0  0  0  0
  -40.2400  -19.2760   24.6050 C   0  0  0  0  0  0  0  0  0  0  0  0
  -39.0050  -18.5420   24.7880 C   0  0  0  0  0  0  0  0  0  0  0  0
  -40.3900  -20.3920   25.3310 C   0  0  0  0  0  0  0  0  0  0  0  0
  -38.0660  -18.9740   25.6360 C   0  0  0  0  0  0  0  0  0  0  0  0
  -39.4340  -20.8830   26.2350 O   0  0  0  0  0  0  0  0  0  0  0  0
  -38.2590  -20.2080   26.4190 C   0  0  0  0  0  0  0  0  0  0  0  0
  -37.3890  -20.5890   27.1950 O   0  0  0  0  0  0  0  0  0  0  0  0
  2  1  1  1  0  0  0
  2 11  1  0  0  0  0
  3  2  1  0  0  0  0
  4  3  1  0  0  0  0
  5 22  1  6  0  0  0
  5  4  1  0  0  0  0
  5  6  1  0  0  0  0
  6  7  1  0  0  0  0
  7 20  1  6  0  0  0
  7  2  1  0  0  0  0
  7  8  1  0  0  0  0
  8  9  1  0  0  0  0
 10  9  1  6  0  0  0
 10 19  1  0  0  0  0
 11 12  1  1  0  0  0
 11 10  1  0  0  0  0
 12 13  1  0  0  0  0
 13 14  1  0  0  0  0
 14 15  1  6  0  0  0
 14 16  1  0  0  0  0
 16 17  1  0  0  0  0
 16 26  1  1  0  0  0
 18 17  1  0  0  0  0
 19 14  1  0  0  0  0
 19 18  1  0  0  0  0
 19 24  1  1  0  0  0
 21 20  1  0  0  0  0
 23 22  1  0  0  0  0
 24 25  1  0  0  0  0
 26 27  1  0  0  0  0
 26 28  2  0  0  0  0
 27 29  2  0  0  0  0
 28 30  1  0  0  0  0
 29 31  1  0  0  0  0
 30 31  1  0  0  0  0
 31 32  2  0  0  0  0
M  END
>  <minimizedAffinity>
-5.12999773

>  <CNNscore>
0.495717794

>  <CNNaffinity>
5.89581156

$$$$

 OpenBabel12312517453D

 32 36  0  0  1  0  0  0  0  0999 V2000
  -41.4010  -16.9450   23.9800 C   0  0  0  0  0  0  0  0  0  0  0  0
  -42.6670  -16.8930   23.0920 C   0  0  1  0  0  0  0  0  0  0  0  0
  -43.8430  -17.5510   23.8970 C   0  0  0  0  0  0  0  0  0  0  0  0
  -44.7090  -16.5540   24.6500 C   0  0  0  0  0  0  0  0  0  0  0  0
  -45.3580  -15.5380   23.7070 C   0  0  2  0  0  0  0  0  0  0  0  0
  -44.5300  -15.2510   22.4460 C   0  0  0  0  0  0  0  0  0  0  0  0
  -43.0150  -15.3870   22.7220 C   0  0  2  0  0  0  0  0  0  0  0  0
  -42.1940  -14.8270   21.5380 C   0  0  0  0  0  0  0  0  0  0  0  0
  -42.0450  -15.7510   20.3320 C   0  0  0  0  0  0  0  0  0  0  0  0
  -41.4590  -17.0820   20.7970 C   0  0  1  0  0  0  0  0  0  0  0  0
  -42.4720  -17.7390   21.7750 C   0  0  1  0  0  0  0  0  0  0  0  0
  -42.1610  -19.2380   21.9520 C   0  0  0  0  0  0  0  0  0  0  0  0
  -42.2420  -20.0410   20.6270 C   0  0  0  0  0  0  0  0  0  0  0  0
  -41.9710  -19.1980   19.3520 C   0  0  2  0  0  0  0  0  0  0  0  0
  -43.3310  -18.6950   18.7780 C   0  0  0  0  0  0  0  0  0  0  0  0
  -41.2610  -19.9120   18.1350 C   0  0  1  0  0  0  0  0  0  0  0  0
  -40.4000  -18.7860   17.4770 C   0  0  0  0  0  0  0  0  0  0  0  0
  -40.5660  -17.5190   18.3350 C   0  0  0  0  0  0  0  0  0  0  0  0
  -40.9760  -18.0610   19.6980 C   0  0  1  0  0  0  0  0  0  0  0  0
  -42.6690  -14.5100   23.8130 O   0  0  0  0  0  0  0  0  0  0  0  0
  -43.4800  -14.2140   24.2740 H   0  0  0  0  0  0  0  0  0  0  0  0
  -45.5000  -14.3170   24.4390 O   0  0  0  0  0  0  0  0  0  0  0  0
  -46.1340  -13.7580   23.9550 H   0  0  0  0  0  0  0  0  0  0  0  0
  -39.7850  -18.6810   20.2410 O   0  0  0  0  0  0  0  0  0  0  0  0
  -39.1190  -17.9880   20.3860 H   0  0  0  0  0  0  0  0  0  0  0  0
  -40.5340  -21.2210   18.4050 C   0  0  0  0  0  0  0  0  0  0  0  0
  -41.1310  -22.4300   17.8770 C   0  0  0  0  0  0  0  0  0  0  0  0
  -39.3760  -21.3600   19.0640 C   0  0  0  0  0  0  0  0  0  0  0  0
  -40.5500  -23.6200   18.0550 C   0  0  0  0  0  0  0  0  0  0  0  0
  -38.7270  -22.5880   19.2740 O   0  0  0  0  0  0  0  0  0  0  0  0
  -39.2770  -23.7420   18.7880 C   0  0  0  0  0  0  0  0  0  0  0  0
  -38.7540  -24.8410   18.9410 O   0  0  0  0  0  0  0  0  0  0  0  0
  2  3  1  0  0  0  0
  2  1  1  1  0  0  0
  3  4  1  0  0  0  0
  5 22  1  1  0  0  0
  5  4  1  0  0  0  0
  6  7  1  0  0  0  0
  6  5  1  0  0  0  0
  7  2  1  0  0  0  0
  7 20  1  1  0  0  0
  8  7  1  0  0  0  0
  9  8  1  0  0  0  0
 10  9  1  6  0  0  0
 10 11  1  0  0  0  0
 11 12  1  1  0  0  0
 11  2  1  0  0  0  0
 13 12  1  0  0  0  0
 14 15  1  6  0  0  0
 14 19  1  0  0  0  0
 14 13  1  0  0  0  0
 16 26  1  1  0  0  0
 16 14  1  0  0  0  0
 17 16  1  0  0  0  0
 17 18  1  0  0  0  0
 18 19  1  0  0  0  0
 19 24  1  1  0  0  0
 19 10  1  0  0  0  0
 20 21  1  0  0  0  0
 23 22  1  0  0  0  0
 24 25  1  0  0  0  0
 26 28  2  0  0  0  0
 27 29  2  0  0  0  0
 27 26  1  0  0  0  0
 28 30  1  0  0  0  0
 29 31  1  0  0  0  0
 31 32  2  0  0  0  0
 31 30  1  0  0  0  0
M  END
>  <minimizedAffinity>
-5.61355972

>  <CNNscore>
0.495475233

>  <CNNaffinity>
5.53405523

$$$$

 OpenBabel12312517453D

 32 36  0  0  1  0  0  0  0  0999 V2000
  -39.6960  -18.3470   24.5610 C   0  0  0  0  0  0  0  0  0  0  0  0
  -41.1470  -18.7900   24.2590 C   0  0  1  0  0  0  0  0  0  0  0  0
  -42.1140  -17.7800   24.9730 C   0  0  0  0  0  0  0  0  0  0  0  0
  -42.6010  -16.6550   24.0740 C   0  0  0  0  0  0  0  0  0  0  0  0
  -43.3660  -17.1870   22.8600 C   0  0  2  0  0  0  0  0  0  0  0  0
  -42.9060  -18.5790   22.4030 C   0  0  0  0  0  0  0  0  0  0  0  0
  -41.4030  -18.7990   22.6910 C   0  0  2  0  0  0  0  0  0  0  0  0
  -40.8940  -20.0740   21.9790 C   0  0  0  0  0  0  0  0  0  0  0  0
  -41.2090  -21.3960   22.6740 C   0  0  0  0  0  0  0  0  0  0  0  0
  -40.6790  -21.3440   24.1040 C   0  0  1  0  0  0  0  0  0  0  0  0
  -41.4410  -20.2200   24.8590 C   0  0  1  0  0  0  0  0  0  0  0  0
  -41.2750  -20.3800   26.3830 C   0  0  0  0  0  0  0  0  0  0  0  0
  -41.8270  -21.7270   26.9200 C   0  0  0  0  0  0  0  0  0  0  0  0
  -41.8330  -22.8760   25.8770 C   0  0  2  0  0  0  0  0  0  0  0  0
  -43.2300  -22.9260   25.1850 C   0  0  0  0  0  0  0  0  0  0  0  0
  -41.5920  -24.3470   26.4020 C   0  0  1  0  0  0  0  0  0  0  0  0
  -40.8280  -25.0510   25.2350 C   0  0  0  0  0  0  0  0  0  0  0  0
  -40.5880  -23.9970   24.1400 C   0  0  0  0  0  0  0  0  0  0  0  0
  -40.6520  -22.6750   24.8950 C   0  0  1  0  0  0  0  0  0  0  0  0
  -40.6570  -17.7410   22.0560 O   0  0  0  0  0  0  0  0  0  0  0  0
  -41.2600  -17.0160   21.7950 H   0  0  0  0  0  0  0  0  0  0  0  0
  -43.1450  -16.2650   21.7880 O   0  0  0  0  0  0  0  0  0  0  0  0
  -43.8190  -16.4410   21.1070 H   0  0  0  0  0  0  0  0  0  0  0  0
  -39.4380  -22.6220   25.6850 O   0  0  0  0  0  0  0  0  0  0  0  0
  -38.6810  -22.5800   25.0770 H   0  0  0  0  0  0  0  0  0  0  0  0
  -40.9820  -24.5170   27.7850 C   0  0  0  0  0  0  0  0  0  0  0  0
  -39.5500  -24.7240   27.8540 C   0  0  0  0  0  0  0  0  0  0  0  0
  -41.6400  -24.4700   28.9500 C   0  0  0  0  0  0  0  0  0  0  0  0
  -38.9310  -24.8670   29.0300 C   0  0  0  0  0  0  0  0  0  0  0  0
  -41.0330  -24.6130   30.2090 O   0  0  0  0  0  0  0  0  0  0  0  0
  -39.6840  -24.8140   30.2960 C   0  0  0  0  0  0  0  0  0  0  0  0
  -39.1010  -24.9440   31.3670 O   0  0  0  0  0  0  0  0  0  0  0  0
  2  1  1  1  0  0  0
  2 11  1  0  0  0  0
  2  3  1  0  0  0  0
  4  3  1  0  0  0  0
  5 22  1  6  0  0  0
  5  4  1  0  0  0  0
  6  7  1  0  0  0  0
  6  5  1  0  0  0  0
  7 20  1  6  0  0  0
  7  2  1  0  0  0  0
  8  9  1  0  0  0  0
  8  7  1  0  0  0  0
 10  9  1  6  0  0  0
 10 11  1  0  0  0  0
 10 19  1  0  0  0  0
 11 12  1  1  0  0  0
 12 13  1  0  0  0  0
 14 15  1  6  0  0  0
 14 16  1  0  0  0  0
 14 13  1  0  0  0  0
 16 26  1  1  0  0  0
 17 16  1  0  0  0  0
 18 19  1  0  0  0  0
 18 17  1  0  0  0  0
 19 24  1  1  0  0  0
 19 14  1  0  0  0  0
 21 20  1  0  0  0  0
 23 22  1  0  0  0  0
 25 24  1  0  0  0  0
 26 27  1  0  0  0  0
 26 28  2  0  0  0  0
 27 29  2  0  0  0  0
 28 30  1  0  0  0  0
 29 31  1  0  0  0  0
 30 31  1  0  0  0  0
 31 32  2  0  0  0  0
M  END
>  <minimizedAffinity>
-4.88375139

>  <CNNscore>
0.479669869

>  <CNNaffinity>
5.64893723

$$$$

 OpenBabel12312517453D

 32 36  0  0  1  0  0  0  0  0999 V2000
  -39.5090  -20.1710   23.8510 C   0  0  0  0  0  0  0  0  0  0  0  0
  -41.0240  -20.3870   23.6270 C   0  0  1  0  0  0  0  0  0  0  0  0
  -41.2760  -21.9330   23.5170 C   0  0  0  0  0  0  0  0  0  0  0  0
  -41.6930  -22.5840   24.8260 C   0  0  0  0  0  0  0  0  0  0  0  0
  -42.9890  -21.9810   25.3740 C   0  0  2  0  0  0  0  0  0  0  0  0
  -43.1980  -20.5110   24.9840 C   0  0  0  0  0  0  0  0  0  0  0  0
  -41.8510  -19.7690   24.8360 C   0  0  2  0  0  0  0  0  0  0  0  0
  -42.0780  -18.2440   24.7250 C   0  0  0  0  0  0  0  0  0  0  0  0
  -42.4980  -17.7300   23.3500 C   0  0  0  0  0  0  0  0  0  0  0  0
  -41.4730  -18.1870   22.3160 C   0  0  1  0  0  0  0  0  0  0  0  0
  -41.4960  -19.7400   22.2680 C   0  0  1  0  0  0  0  0  0  0  0  0
  -40.8180  -20.2530   20.9830 C   0  0  0  0  0  0  0  0  0  0  0  0
  -41.5120  -19.7620   19.6850 C   0  0  0  0  0  0  0  0  0  0  0  0
  -42.2760  -18.4180   19.8400 C   0  0  2  0  0  0  0  0  0  0  0  0
  -43.7710  -18.7200   20.1660 C   0  0  0  0  0  0  0  0  0  0  0  0
  -42.3240  -17.4520   18.5910 C   0  0  1  0  0  0  0  0  0  0  0  0
  -42.3250  -16.0190   19.2140 C   0  0  0  0  0  0  0  0  0  0  0  0
  -42.2070  -16.1800   20.7400 C   0  0  0  0  0  0  0  0  0  0  0  0
  -41.5620  -17.5500   20.9070 C   0  0  1  0  0  0  0  0  0  0  0  0
  -41.1140  -19.9090   26.0680 O   0  0  0  0  0  0  0  0  0  0  0  0
  -41.5130  -20.6130   26.6180 H   0  0  0  0  0  0  0  0  0  0  0  0
  -42.9200  -22.0640   26.8010 O   0  0  0  0  0  0  0  0  0  0  0  0
  -43.8220  -21.9330   27.1450 H   0  0  0  0  0  0  0  0  0  0  0  0
  -40.1880  -17.3840   20.4780 O   0  0  0  0  0  0  0  0  0  0  0  0
  -39.7490  -16.7720   21.0940 H   0  0  0  0  0  0  0  0  0  0  0  0
  -41.3160  -17.6820   17.4750 C   0  0  0  0  0  0  0  0  0  0  0  0
  -40.4000  -16.6000   17.1780 C   0  0  0  0  0  0  0  0  0  0  0  0
  -41.1780  -18.8020   16.7540 C   0  0  0  0  0  0  0  0  0  0  0  0
  -39.4730  -16.7250   16.2230 C   0  0  0  0  0  0  0  0  0  0  0  0
  -40.2190  -18.9800   15.7430 O   0  0  0  0  0  0  0  0  0  0  0  0
  -39.3480  -17.9690   15.4440 C   0  0  0  0  0  0  0  0  0  0  0  0
  -38.4910  -18.0690   14.5730 O   0  0  0  0  0  0  0  0  0  0  0  0
  2  1  1  1  0  0  0
  2  7  1  0  0  0  0
  3  2  1  0  0  0  0
  3  4  1  0  0  0  0
  4  5  1  0  0  0  0
  5 22  1  1  0  0  0
  6  5  1  0  0  0  0
  7  6  1  0  0  0  0
  7 20  1  1  0  0  0
  8  7  1  0  0  0  0
  9  8  1  0  0  0  0
 10  9  1  1  0  0  0
 11 12  1  6  0  0  0
 11 10  1  0  0  0  0
 11  2  1  0  0  0  0
 13 14  1  0  0  0  0
 13 12  1  0  0  0  0
 14 15  1  1  0  0  0
 14 19  1  0  0  0  0
 16 26  1  6  0  0  0
 16 17  1  0  0  0  0
 16 14  1  0  0  0  0
 17 18  1  0  0  0  0
 18 19  1  0  0  0  0
 19 24  1  6  0  0  0
 19 10  1  0  0  0  0
 20 21  1  0  0  0  0
 22 23  1  0  0  0  0
 24 25  1  0  0  0  0
 27 26  1  0  0  0  0
 28 26  2  0  0  0  0
 29 27  2  0  0  0  0
 30 28  1  0  0  0  0
 31 30  1  0  0  0  0
 31 29  1  0  0  0  0
 32 31  2  0  0  0  0
M  END
>  <minimizedAffinity>
-4.81771517

>  <CNNscore>
0.478831828

>  <CNNaffinity>
5.33785057

$$$$

 OpenBabel12312517453D

 32 36  0  0  1  0  0  0  0  0999 V2000
  -40.1880  -17.8250   24.2220 C   0  0  0  0  0  0  0  0  0  0  0  0
  -41.6320  -18.3780   24.2220 C   0  0  1  0  0  0  0  0  0  0  0  0
  -42.5070  -17.4310   25.1190 C   0  0  0  0  0  0  0  0  0  0  0  0
  -43.2500  -16.3580   24.3390 C   0  0  0  0  0  0  0  0  0  0  0  0
  -44.2040  -16.9640   23.3060 C   0  0  2  0  0  0  0  0  0  0  0  0
  -43.7430  -18.3250   22.7640 C   0  0  0  0  0  0  0  0  0  0  0  0
  -42.2020  -18.4290   22.7390 C   0  0  2  0  0  0  0  0  0  0  0  0
  -41.7530  -19.6740   21.9390 C   0  0  0  0  0  0  0  0  0  0  0  0
  -41.8200  -21.0050   22.6830 C   0  0  0  0  0  0  0  0  0  0  0  0
  -41.0150  -20.8920   23.9750 C   0  0  1  0  0  0  0  0  0  0  0  0
  -41.6900  -19.8160   24.8700 C   0  0  1  0  0  0  0  0  0  0  0  0
  -41.2060  -19.9410   26.3270 C   0  0  0  0  0  0  0  0  0  0  0  0
  -41.5340  -21.3160   26.9660 C   0  0  0  0  0  0  0  0  0  0  0  0
  -41.6660  -22.4790   25.9460 C   0  0  2  0  0  0  0  0  0  0  0  0
  -43.1670  -22.6420   25.5540 C   0  0  0  0  0  0  0  0  0  0  0  0
  -41.2140  -23.9190   26.4100 C   0  0  1  0  0  0  0  0  0  0  0  0
  -40.6520  -24.5830   25.1120 C   0  0  0  0  0  0  0  0  0  0  0  0
  -40.7200  -23.5310   23.9910 C   0  0  0  0  0  0  0  0  0  0  0  0
  -40.7280  -22.2060   24.7430 C   0  0  1  0  0  0  0  0  0  0  0  0
  -41.6810  -17.3290   21.9660 O   0  0  0  0  0  0  0  0  0  0  0  0
  -42.3780  -16.6550   21.8340 H   0  0  0  0  0  0  0  0  0  0  0  0
  -44.2760  -16.0450   22.2120 O   0  0  0  0  0  0  0  0  0  0  0  0
  -45.0590  -16.2800   21.6830 H   0  0  0  0  0  0  0  0  0  0  0  0
  -39.3870  -22.0520   25.2680 O   0  0  0  0  0  0  0  0  0  0  0  0
  -38.7740  -21.9630   24.5190 H   0  0  0  0  0  0  0  0  0  0  0  0
  -40.3230  -24.0230   27.6390 C   0  0  0  0  0  0  0  0  0  0  0  0
  -39.9250  -25.3520   28.0560 C   0  0  0  0  0  0  0  0  0  0  0  0
  -39.8490  -22.9990   28.3600 C   0  0  0  0  0  0  0  0  0  0  0  0
  -39.1310  -25.5320   29.1170 C   0  0  0  0  0  0  0  0  0  0  0  0
  -39.0110  -23.1380   29.4790 O   0  0  0  0  0  0  0  0  0  0  0  0
  -38.6280  -24.3840   29.8930 C   0  0  0  0  0  0  0  0  0  0  0  0
  -37.8980  -24.5660   30.8610 O   0  0  0  0  0  0  0  0  0  0  0  0
  2  1  1  6  0  0  0
  2 11  1  0  0  0  0
  2  3  1  0  0  0  0
  4  3  1  0  0  0  0
  5 22  1  6  0  0  0
  5  4  1  0  0  0  0
  6  5  1  0  0  0  0
  7 20  1  6  0  0  0
  7  6  1  0  0  0  0
  7  2  1  0  0  0  0
  8  9  1  0  0  0  0
  8  7  1  0  0  0  0
 10  9  1  6  0  0  0
 10 19  1  0  0  0  0
 10 11  1  0  0  0  0
 11 12  1  1  0  0  0
 12 13  1  0  0  0  0
 14 15  1  6  0  0  0
 14 16  1  0  0  0  0
 14 13  1  0  0  0  0
 16 26  1  1  0  0  0
 17 16  1  0  0  0  0
 18 19  1  0  0  0  0
 18 17  1  0  0  0  0
 19 24  1  1  0  0  0
 19 14  1  0  0  0  0
 21 20  1  0  0  0  0
 23 22  1  0  0  0  0
 25 24  1  0  0  0  0
 26 27  1  0  0  0  0
 26 28  2  0  0  0  0
 27 29  2  0  0  0  0
 28 30  1  0  0  0  0
 29 31  1  0  0  0  0
 30 31  1  0  0  0  0
 31 32  2  0  0  0  0
M  END
>  <minimizedAffinity>
-5.00424099

>  <CNNscore>
0.450720876

>  <CNNaffinity>
5.61322784

$$$$
