
 OpenBabel01022600283D

 30 33  0  0  1  0  0  0  0  0999 V2000
  -41.5110  -19.7970   26.1350 C   0  0  0  0  0  0  0  0  0  0  0  0
  -40.9020  -19.9590   24.7410 C   0  0  2  0  0  0  0  0  0  0  0  0
  -42.0260  -20.2270   23.7050 C   0  0  2  0  0  0  0  0  0  0  0  0
  -40.0670  -21.2350   24.6890 C   0  0  2  0  0  0  0  0  0  0  0  0
  -40.2040  -18.6760   24.3340 C   0  0  0  0  0  0  0  0  0  0  0  0
  -43.0940  -19.1720   23.9260 C   0  0  1  0  0  0  0  0  0  0  0  0
  -42.4270  -21.6660   24.0460 C   0  0  0  0  0  0  0  0  0  0  0  0
  -41.0600  -22.3580   24.2950 C   0  0  0  0  0  0  0  0  0  0  0  0
  -41.2330  -17.5390   24.4530 C   0  0  0  0  0  0  0  0  0  0  0  0
  -42.4630  -17.8110   23.5950 C   0  0  2  0  0  0  0  0  0  0  0  0
  -44.2840  -19.4150   22.9970 C   0  0  2  0  0  0  0  0  0  0  0  0
  -43.5020  -16.7090   23.8050 C   0  0  2  0  0  0  0  0  0  0  0  0
  -45.3220  -18.3090   23.2000 C   0  0  0  0  0  0  0  0  0  0  0  0
  -43.9770  -16.7240   25.2600 C   0  0  0  0  0  0  0  0  0  0  0  0
  -44.6950  -16.9520   22.8760 C   0  0  2  0  0  0  0  0  0  0  0  0
  -42.8750  -15.3500   23.4860 C   0  0  0  0  0  0  0  0  0  0  0  0
  -44.2150  -16.9470   21.4230 C   0  0  0  0  0  0  0  0  0  0  0  0
  -42.3910  -15.3410   22.0350 C   0  0  0  0  0  0  0  0  0  0  0  0
  -43.5850  -15.5920   21.0970 C   0  0  1  0  0  0  0  0  0  0  0  0
  -39.4550  -21.5250   26.0600 C   0  0  2  0  0  0  0  0  0  0  0  0
  -38.0040  -21.0420   26.0840 C   0  0  0  0  0  0  0  0  0  0  0  0
  -39.4970  -23.0310   26.3290 C   0  0  0  0  0  0  0  0  0  0  0  0
  -40.2900  -23.2980   27.6100 C   0  0  0  0  0  0  0  0  0  0  0  0
  -39.3360  -23.4590   28.7670 C   0  0  0  0  0  0  0  0  0  0  0  0
  -38.9260  -24.6830   29.1330 O   0  0  0  0  0  0  0  0  0  0  0  0
  -38.9410  -22.4850   29.3630 O   0  0  0  0  0  0  0  0  0  0  0  0
  -44.8720  -20.6820   23.2970 O   0  0  0  0  0  0  0  0  0  0  0  0
  -45.6160  -20.7950   22.6890 H   0  0  0  0  0  0  0  0  0  0  0  0
  -43.1350  -15.5900   19.7410 O   0  0  0  0  0  0  0  0  0  0  0  0
  -42.7460  -14.7190   19.5770 H   0  0  0  0  0  0  0  0  0  0  0  0
  2  1  1  1  0  0  0
  3  6  1  0  0  0  0
  3  7  1  1  0  0  0
  3  2  1  0  0  0  0
  4  2  1  0  0  0  0
  4 20  1  1  0  0  0
  5  9  1  0  0  0  0
  5  2  1  0  0  0  0
  7  8  1  0  0  0  0
  8  4  1  0  0  0  0
 10 12  1  0  0  0  0
 10  6  1  0  0  0  0
 10  9  1  0  0  0  0
 11 13  1  0  0  0  0
 11 27  1  0  0  0  0
 11  6  1  0  0  0  0
 12 14  1  0  0  0  0
 15 13  1  0  0  0  0
 15 12  1  0  0  0  0
 16 12  1  0  0  0  0
 17 15  1  0  0  0  0
 18 16  1  0  0  0  0
 19 17  1  0  0  0  0
 19 18  1  0  0  0  0
 20 21  1  0  0  0  0
 20 22  1  0  0  0  0
 22 23  1  0  0  0  0
 23 24  1  0  0  0  0
 24 25  2  0  0  0  0
 24 26  1  0  0  0  0
 28 27  1  0  0  0  0
 29 19  1  0  0  0  0
 30 29  1  0  0  0  0
M  END
>  <minimizedAffinity>
-4.55610657

>  <CNNscore>
0.578449607

>  <CNNaffinity>
5.6205802

$$$$

 OpenBabel01022600283D

 30 34  0  0  1  0  0  0  0  0999 V2000
  -42.0170  -19.6150   25.8870 C   0  0  0  0  0  0  0  0  0  0  0  0
  -41.2270  -19.8250   24.5930 C   0  0  2  0  0  0  0  0  0  0  0  0
  -39.8740  -20.5170   24.9110 C   0  0  2  0  0  0  0  0  0  0  0  0
  -40.8060  -18.4760   24.0220 C   0  0  2  0  0  0  0  0  0  0  0  0
  -42.0000  -20.7420   23.6650 C   0  0  0  0  0  0  0  0  0  0  0  0
  -40.1830  -21.7140   25.7910 C   0  0  1  0  0  0  0  0  0  0  0  0
  -39.0930  -19.3800   25.5790 C   0  0  0  0  0  0  0  0  0  0  0  0
  -39.4500  -18.1510   24.6990 C   0  0  0  0  0  0  0  0  0  0  0  0
  -42.3030  -22.0330   24.4450 C   0  0  0  0  0  0  0  0  0  0  0  0
  -41.0240  -22.6890   24.9520 C   0  0  2  0  0  0  0  0  0  0  0  0
  -38.8900  -22.4060   26.2210 C   0  0  2  0  0  0  0  0  0  0  0  0
  -41.3650  -23.9160   25.7980 C   0  0  2  0  0  0  0  0  0  0  0  0
  -39.2280  -23.6400   27.0620 C   0  0  0  0  0  0  0  0  0  0  0  0
  -42.1510  -23.4820   27.0380 C   0  0  0  0  0  0  0  0  0  0  0  0
  -40.0700  -24.6100   26.2300 C   0  0  2  0  0  0  0  0  0  0  0  0
  -42.2120  -24.8850   24.9700 C   0  0  0  0  0  0  0  0  0  0  0  0
  -39.2830  -25.0330   24.9890 C   0  0  0  0  0  0  0  0  0  0  0  0
  -41.4290  -25.3100   23.7260 C   0  0  0  0  0  0  0  0  0  0  0  0
  -40.1240  -26.0010   24.1550 C   0  0  1  0  0  0  0  0  0  0  0  0
  -41.8410  -17.4050   24.3700 C   0  0  2  0  0  0  0  0  0  0  0  0
  -42.6970  -17.8850   25.5440 C   0  0  0  0  0  0  0  0  0  0  0  0
  -42.7370  -17.1480   23.1570 C   0  0  0  0  0  0  0  0  0  0  0  0
  -42.9210  -15.6400   22.9690 C   0  0  0  0  0  0  0  0  0  0  0  0
  -42.0780  -15.1710   21.8110 C   0  0  0  0  0  0  0  0  0  0  0  0
  -41.7530  -16.0250   20.8280 O   0  0  0  0  0  0  0  0  0  0  0  0
  -41.6950  -14.0260   21.7680 O   0  0  0  0  0  0  0  0  0  0  0  0
  -38.1000  -21.5030   26.9980 O   0  0  0  0  0  0  0  0  0  0  0  0
  -37.2960  -21.9780   27.2470 H   0  0  0  0  0  0  0  0  0  0  0  0
  -39.3880  -26.3940   22.9950 O   0  0  0  0  0  0  0  0  0  0  0  0
  -39.9520  -27.0020   22.4990 H   0  0  0  0  0  0  0  0  0  0  0  0
  2  5  1  6  0  0  0
  2  3  1  0  0  0  0
  2  1  1  0  0  0  0
  3  7  1  1  0  0  0
  3  6  1  0  0  0  0
  4 20  1  0  0  0  0
  4  2  1  0  0  0  0
  4  8  1  1  0  0  0
  5  9  1  0  0  0  0
  6 11  1  0  0  0  0
  8  7  1  0  0  0  0
  9 10  1  0  0  0  0
 10  6  1  0  0  0  0
 10 12  1  0  0  0  0
 11 27  1  0  0  0  0
 11 13  1  0  0  0  0
 12 15  1  0  0  0  0
 12 14  1  0  0  0  0
 15 13  1  0  0  0  0
 16 12  1  0  0  0  0
 17 15  1  0  0  0  0
 18 19  1  0  0  0  0
 18 16  1  0  0  0  0
 19 17  1  0  0  0  0
 20 21  1  0  0  0  0
 21  1  1  0  0  0  0
 22 20  1  0  0  0  0
 23 22  1  0  0  0  0
 24 23  1  0  0  0  0
 25 24  2  0  0  0  0
 26 24  1  0  0  0  0
 27 28  1  0  0  0  0
 29 19  1  0  0  0  0
 30 29  1  0  0  0  0
M  END
>  <minimizedAffinity>
-5.88881445

>  <CNNscore>
0.418557107

>  <CNNaffinity>
5.96323442

$$$$

 OpenBabel01022600283D

 30 33  0  0  1  0  0  0  0  0999 V2000
  -40.5890  -18.2020   20.0840 C   0  0  0  0  0  0  0  0  0  0  0  0
  -42.1140  -18.1560   20.2020 C   0  0  2  0  0  0  0  0  0  0  0  0
  -42.5660  -16.7290   20.6150 C   0  0  2  0  0  0  0  0  0  0  0  0
  -42.5650  -19.0200   21.3760 C   0  0  2  0  0  0  0  0  0  0  0  0
  -42.7420  -18.4610   18.8560 C   0  0  0  0  0  0  0  0  0  0  0  0
  -41.8680  -15.7560   19.6830 C   0  0  1  0  0  0  0  0  0  0  0  0
  -42.1320  -16.6780   22.0830 C   0  0  0  0  0  0  0  0  0  0  0  0
  -42.5250  -18.0850   22.6110 C   0  0  0  0  0  0  0  0  0  0  0  0
  -42.1510  -17.4690   17.8410 C   0  0  0  0  0  0  0  0  0  0  0  0
  -42.3970  -16.0260   18.2660 C   0  0  2  0  0  0  0  0  0  0  0  0
  -42.1950  -14.3150   20.0770 C   0  0  2  0  0  0  0  0  0  0  0  0
  -41.7190  -15.0680   17.2850 C   0  0  2  0  0  0  0  0  0  0  0  0
  -41.5240  -13.3540   19.0920 C   0  0  0  0  0  0  0  0  0  0  0  0
  -40.2040  -15.2790   17.3260 C   0  0  0  0  0  0  0  0  0  0  0  0
  -42.0450  -13.6240   17.6790 C   0  0  2  0  0  0  0  0  0  0  0  0
  -42.2360  -15.3400   15.8700 C   0  0  0  0  0  0  0  0  0  0  0  0
  -43.5600  -13.4190   17.6470 C   0  0  0  0  0  0  0  0  0  0  0  0
  -43.7510  -15.1390   15.8340 C   0  0  0  0  0  0  0  0  0  0  0  0
  -44.0840  -13.6910   16.2360 C   0  0  1  0  0  0  0  0  0  0  0  0
  -41.6070  -20.1950   21.5700 C   0  0  2  0  0  0  0  0  0  0  0  0
  -40.3320  -19.7050   22.2600 C   0  0  0  0  0  0  0  0  0  0  0  0
  -41.2520  -20.7950   20.2080 C   0  0  0  0  0  0  0  0  0  0  0  0
  -40.4240  -22.0660   20.4100 C   0  0  0  0  0  0  0  0  0  0  0  0
  -39.2080  -22.0210   19.5220 C   0  0  0  0  0  0  0  0  0  0  0  0
  -38.3470  -23.0500   19.5080 O   0  0  0  0  0  0  0  0  0  0  0  0
  -39.0080  -21.0560   18.8200 O   0  0  0  0  0  0  0  0  0  0  0  0
  -41.7100  -14.0590   21.3960 O   0  0  0  0  0  0  0  0  0  0  0  0
  -41.9370  -13.1430   21.6050 H   0  0  0  0  0  0  0  0  0  0  0  0
  -45.5000  -13.5020   16.2080 O   0  0  0  0  0  0  0  0  0  0  0  0
  -45.7890  -13.6820   15.3030 H   0  0  0  0  0  0  0  0  0  0  0  0
  2  1  1  6  0  0  0
  2  3  1  0  0  0  0
  2  4  1  0  0  0  0
  3  7  1  1  0  0  0
  4 20  1  1  0  0  0
  4  8  1  0  0  0  0
  5  2  1  0  0  0  0
  6 11  1  0  0  0  0
  6  3  1  0  0  0  0
  7  8  1  0  0  0  0
  9 10  1  0  0  0  0
  9  5  1  0  0  0  0
 10  6  1  0  0  0  0
 11 27  1  0  0  0  0
 12 14  1  0  0  0  0
 12 15  1  0  0  0  0
 12 10  1  0  0  0  0
 13 11  1  0  0  0  0
 15 13  1  0  0  0  0
 16 12  1  0  0  0  0
 17 15  1  0  0  0  0
 18 16  1  0  0  0  0
 18 19  1  0  0  0  0
 19 17  1  0  0  0  0
 20 21  1  0  0  0  0
 22 23  1  0  0  0  0
 22 20  1  0  0  0  0
 24 23  1  0  0  0  0
 25 24  1  0  0  0  0
 26 24  2  0  0  0  0
 27 28  1  0  0  0  0
 29 19  1  0  0  0  0
 30 29  1  0  0  0  0
M  END
>  <minimizedAffinity>
-5.34960556

>  <CNNscore>
0.41841808

>  <CNNaffinity>
5.25895452

$$$$

 OpenBabel01022600283D

 30 33  0  0  1  0  0  0  0  0999 V2000
  -42.5550  -20.2880   20.5420 C   0  0  0  0  0  0  0  0  0  0  0  0
  -41.0310  -20.4240   20.5770 C   0  0  2  0  0  0  0  0  0  0  0  0
  -40.4370  -19.4110   21.5930 C   0  0  2  0  0  0  0  0  0  0  0  0
  -40.4430  -19.9700   19.2450 C   0  0  2  0  0  0  0  0  0  0  0  0
  -40.6510  -21.8150   21.0460 C   0  0  0  0  0  0  0  0  0  0  0  0
  -41.2220  -19.5640   22.8820 C   0  0  1  0  0  0  0  0  0  0  0  0
  -40.6210  -18.0830   20.8520 C   0  0  0  0  0  0  0  0  0  0  0  0
  -40.2280  -18.4420   19.3930 C   0  0  0  0  0  0  0  0  0  0  0  0
  -41.3430  -22.0460   22.4000 C   0  0  0  0  0  0  0  0  0  0  0  0
  -40.9490  -20.9800   23.4150 C   0  0  2  0  0  0  0  0  0  0  0  0
  -40.7540  -18.5390   23.9160 C   0  0  2  0  0  0  0  0  0  0  0  0
  -41.7230  -21.1850   24.7180 C   0  0  2  0  0  0  0  0  0  0  0  0
  -41.5210  -18.7470   25.2230 C   0  0  0  0  0  0  0  0  0  0  0  0
  -43.2200  -21.0050   24.4590 C   0  0  0  0  0  0  0  0  0  0  0  0
  -41.2550  -20.1580   25.7530 C   0  0  2  0  0  0  0  0  0  0  0  0
  -41.4620  -22.5980   25.2460 C   0  0  0  0  0  0  0  0  0  0  0  0
  -39.7560  -20.3340   26.0010 C   0  0  0  0  0  0  0  0  0  0  0  0
  -39.9640  -22.7800   25.4940 C   0  0  0  0  0  0  0  0  0  0  0  0
  -39.4880  -21.7450   26.5290 C   0  0  1  0  0  0  0  0  0  0  0  0
  -41.4220  -20.2580   18.1060 C   0  0  2  0  0  0  0  0  0  0  0  0
  -40.8800  -21.4020   17.2460 C   0  0  0  0  0  0  0  0  0  0  0  0
  -41.5880  -19.0050   17.2450 C   0  0  0  0  0  0  0  0  0  0  0  0
  -40.9420  -19.2380   15.8770 C   0  0  0  0  0  0  0  0  0  0  0  0
  -40.0760  -18.0570   15.5220 C   0  0  0  0  0  0  0  0  0  0  0  0
  -40.4340  -17.2380   14.5220 O   0  0  0  0  0  0  0  0  0  0  0  0
  -39.0590  -17.8470   16.1410 O   0  0  0  0  0  0  0  0  0  0  0  0
  -41.0000  -17.2200   23.4240 O   0  0  0  0  0  0  0  0  0  0  0  0
  -40.6910  -16.6060   24.1040 H   0  0  0  0  0  0  0  0  0  0  0  0
  -38.0870  -21.9090   26.7580 O   0  0  0  0  0  0  0  0  0  0  0  0
  -37.9610  -22.8090   27.0890 H   0  0  0  0  0  0  0  0  0  0  0  0
  2  1  1  6  0  0  0
  2  5  1  0  0  0  0
  2  3  1  0  0  0  0
  3  7  1  6  0  0  0
  3  6  1  0  0  0  0
  4 20  1  6  0  0  0
  4  8  1  0  0  0  0
  4  2  1  0  0  0  0
  5  9  1  0  0  0  0
  6 10  1  0  0  0  0
  6 11  1  0  0  0  0
  8  7  1  0  0  0  0
  9 10  1  0  0  0  0
 10 12  1  0  0  0  0
 11 13  1  0  0  0  0
 12 16  1  0  0  0  0
 12 15  1  0  0  0  0
 13 15  1  0  0  0  0
 14 12  1  0  0  0  0
 15 17  1  0  0  0  0
 16 18  1  0  0  0  0
 17 19  1  0  0  0  0
 18 19  1  0  0  0  0
 19 29  1  0  0  0  0
 21 20  1  0  0  0  0
 22 20  1  0  0  0  0
 23 22  1  0  0  0  0
 24 23  1  0  0  0  0
 24 26  1  0  0  0  0
 25 24  2  0  0  0  0
 27 11  1  0  0  0  0
 27 28  1  0  0  0  0
 29 30  1  0  0  0  0
M  END
>  <minimizedAffinity>
-4.81052303

>  <CNNscore>
0.407773733

>  <CNNaffinity>
5.56883001

$$$$

 OpenBabel01022600283D

 30 33  0  0  1  0  0  0  0  0999 V2000
  -40.4370  -17.4480   18.9350 C   0  0  0  0  0  0  0  0  0  0  0  0
  -41.9320  -17.1630   18.7700 C   0  0  2  0  0  0  0  0  0  0  0  0
  -42.1800  -15.6310   18.8000 C   0  0  2  0  0  0  0  0  0  0  0  0
  -42.6890  -17.6650   19.9950 C   0  0  2  0  0  0  0  0  0  0  0  0
  -42.4060  -17.6750   17.4240 C   0  0  0  0  0  0  0  0  0  0  0  0
  -41.1970  -15.0030   17.8300 C   0  0  1  0  0  0  0  0  0  0  0  0
  -41.9560  -15.3090   20.2810 C   0  0  0  0  0  0  0  0  0  0  0  0
  -42.6610  -16.4890   21.0040 C   0  0  0  0  0  0  0  0  0  0  0  0
  -41.5110  -17.0330   16.3500 C   0  0  0  0  0  0  0  0  0  0  0  0
  -41.5580  -15.5110   16.4250 C   0  0  2  0  0  0  0  0  0  0  0  0
  -41.3180  -13.4790   17.8600 C   0  0  2  0  0  0  0  0  0  0  0  0
  -40.5910  -14.9060   15.4070 C   0  0  2  0  0  0  0  0  0  0  0  0
  -40.3560  -12.8710   16.8370 C   0  0  0  0  0  0  0  0  0  0  0  0
  -39.1580  -15.3140   15.7570 C   0  0  0  0  0  0  0  0  0  0  0  0
  -40.7100  -13.3800   15.4380 C   0  0  2  0  0  0  0  0  0  0  0  0
  -40.9400  -15.4170   14.0080 C   0  0  0  0  0  0  0  0  0  0  0  0
  -42.1460  -12.9770   15.0980 C   0  0  0  0  0  0  0  0  0  0  0  0
  -42.3760  -15.0190   13.6640 C   0  0  0  0  0  0  0  0  0  0  0  0
  -42.5040  -13.4860   13.7000 C   0  0  1  0  0  0  0  0  0  0  0  0
  -41.9900  -18.8890   20.5880 C   0  0  2  0  0  0  0  0  0  0  0  0
  -40.8060  -18.4340   21.4450 C   0  0  0  0  0  0  0  0  0  0  0  0
  -41.4850  -19.7870   19.4570 C   0  0  0  0  0  0  0  0  0  0  0  0
  -40.6510  -20.9270   20.0450 C   0  0  0  0  0  0  0  0  0  0  0  0
  -39.6720  -21.4190   19.0100 C   0  0  0  0  0  0  0  0  0  0  0  0
  -39.8120  -21.0540   17.7260 O   0  0  0  0  0  0  0  0  0  0  0  0
  -38.7600  -22.1420   19.3370 O   0  0  0  0  0  0  0  0  0  0  0  0
  -40.9880  -13.0010   19.1660 O   0  0  0  0  0  0  0  0  0  0  0  0
  -41.0780  -12.0390   19.1420 H   0  0  0  0  0  0  0  0  0  0  0  0
  -43.8460  -13.1110   13.3860 O   0  0  0  0  0  0  0  0  0  0  0  0
  -44.0300  -13.4500   12.4990 H   0  0  0  0  0  0  0  0  0  0  0  0
  2  3  1  0  0  0  0
  2  1  1  1  0  0  0
  2  4  1  0  0  0  0
  3  7  1  1  0  0  0
  4 20  1  1  0  0  0
  4  8  1  0  0  0  0
  5  2  1  0  0  0  0
  6 11  1  0  0  0  0
  6  3  1  0  0  0  0
  7  8  1  0  0  0  0
  9 10  1  0  0  0  0
  9  5  1  0  0  0  0
 10  6  1  0  0  0  0
 11 27  1  0  0  0  0
 12 15  1  0  0  0  0
 12 14  1  0  0  0  0
 12 10  1  0  0  0  0
 13 11  1  0  0  0  0
 15 13  1  0  0  0  0
 16 12  1  0  0  0  0
 17 15  1  0  0  0  0
 18 19  1  0  0  0  0
 18 16  1  0  0  0  0
 19 17  1  0  0  0  0
 20 21  1  0  0  0  0
 22 23  1  0  0  0  0
 22 20  1  0  0  0  0
 24 26  1  0  0  0  0
 24 23  1  0  0  0  0
 25 24  2  0  0  0  0
 28 27  1  0  0  0  0
 29 19  1  0  0  0  0
 30 29  1  0  0  0  0
M  END
>  <minimizedAffinity>
-4.70689487

>  <CNNscore>
0.402605921

>  <CNNaffinity>
5.52127886

$$$$

 OpenBabel01022600283D

 30 33  0  0  1  0  0  0  0  0999 V2000
  -42.3750  -21.0060   20.4720 C   0  0  0  0  0  0  0  0  0  0  0  0
  -40.8900  -21.3430   20.6220 C   0  0  2  0  0  0  0  0  0  0  0  0
  -40.1890  -20.2550   21.4780 C   0  0  2  0  0  0  0  0  0  0  0  0
  -40.1970  -21.2260   19.2690 C   0  0  2  0  0  0  0  0  0  0  0  0
  -40.7360  -22.6640   21.3500 C   0  0  0  0  0  0  0  0  0  0  0  0
  -41.0320  -20.0590   22.7240 C   0  0  1  0  0  0  0  0  0  0  0  0
  -40.1490  -19.0720   20.5050 C   0  0  0  0  0  0  0  0  0  0  0  0
  -39.7630  -19.7420   19.1590 C   0  0  0  0  0  0  0  0  0  0  0  0
  -41.5010  -22.5470   22.6780 C   0  0  0  0  0  0  0  0  0  0  0  0
  -40.9890  -21.3780   23.5130 C   0  0  2  0  0  0  0  0  0  0  0  0
  -40.4530  -18.9380   23.5880 C   0  0  2  0  0  0  0  0  0  0  0  0
  -41.8290  -21.2330   24.7820 C   0  0  2  0  0  0  0  0  0  0  0  0
  -41.2870  -18.7960   24.8630 C   0  0  0  0  0  0  0  0  0  0  0  0
  -43.2730  -20.8960   24.4060 C   0  0  0  0  0  0  0  0  0  0  0  0
  -41.2510  -20.1090   25.6470 C   0  0  2  0  0  0  0  0  0  0  0  0
  -41.7980  -22.5480   25.5650 C   0  0  0  0  0  0  0  0  0  0  0  0
  -39.8040  -20.4440   26.0130 C   0  0  0  0  0  0  0  0  0  0  0  0
  -40.3520  -22.8880   25.9320 C   0  0  0  0  0  0  0  0  0  0  0  0
  -39.7640  -21.7580   26.7950 C   0  0  1  0  0  0  0  0  0  0  0  0
  -41.1680  -21.5790   18.1410 C   0  0  2  0  0  0  0  0  0  0  0  0
  -42.3940  -20.6660   18.2210 C   0  0  0  0  0  0  0  0  0  0  0  0
  -41.6070  -23.0370   18.2830 C   0  0  0  0  0  0  0  0  0  0  0  0
  -40.4420  -23.9580   17.9140 C   0  0  0  0  0  0  0  0  0  0  0  0
  -40.9720  -25.3280   17.5740 C   0  0  0  0  0  0  0  0  0  0  0  0
  -40.2030  -26.1980   16.9030 O   0  0  0  0  0  0  0  0  0  0  0  0
  -42.0910  -25.6410   17.9060 O   0  0  0  0  0  0  0  0  0  0  0  0
  -40.4850  -17.7100   22.8590 O   0  0  0  0  0  0  0  0  0  0  0  0
  -40.1120  -17.0310   23.4380 H   0  0  0  0  0  0  0  0  0  0  0  0
  -38.4120  -22.0710   27.1340 O   0  0  0  0  0  0  0  0  0  0  0  0
  -38.4320  -22.9040   27.6250 H   0  0  0  0  0  0  0  0  0  0  0  0
  2  1  1  6  0  0  0
  2  5  1  0  0  0  0
  2  3  1  0  0  0  0
  3  7  1  6  0  0  0
  3  6  1  0  0  0  0
  4 20  1  6  0  0  0
  4  2  1  0  0  0  0
  5  9  1  0  0  0  0
  6 10  1  0  0  0  0
  6 11  1  0  0  0  0
  8  4  1  0  0  0  0
  8  7  1  0  0  0  0
  9 10  1  0  0  0  0
 10 12  1  0  0  0  0
 11 13  1  0  0  0  0
 12 16  1  0  0  0  0
 12 15  1  0  0  0  0
 13 15  1  0  0  0  0
 14 12  1  0  0  0  0
 15 17  1  0  0  0  0
 16 18  1  0  0  0  0
 17 19  1  0  0  0  0
 18 19  1  0  0  0  0
 19 29  1  0  0  0  0
 20 21  1  0  0  0  0
 20 22  1  0  0  0  0
 23 22  1  0  0  0  0
 24 26  1  0  0  0  0
 24 23  1  0  0  0  0
 25 24  2  0  0  0  0
 27 28  1  0  0  0  0
 27 11  1  0  0  0  0
 29 30  1  0  0  0  0
M  END
>  <minimizedAffinity>
-4.55028391

>  <CNNscore>
0.397729725

>  <CNNaffinity>
5.72358656

$$$$

 OpenBabel01022600283D

 30 33  0  0  1  0  0  0  0  0999 V2000
  -42.9380  -20.3240   23.5130 C   0  0  0  0  0  0  0  0  0  0  0  0
  -42.1570  -19.1280   24.0640 C   0  0  2  0  0  0  0  0  0  0  0  0
  -41.0150  -18.7500   23.0830 C   0  0  2  0  0  0  0  0  0  0  0  0
  -41.4110  -19.5390   25.3290 C   0  0  2  0  0  0  0  0  0  0  0  0
  -43.0750  -17.9260   24.1790 C   0  0  0  0  0  0  0  0  0  0  0  0
  -41.6320  -18.6570   21.7000 C   0  0  1  0  0  0  0  0  0  0  0  0
  -40.0270  -19.9010   23.2980 C   0  0  0  0  0  0  0  0  0  0  0  0
  -40.0500  -20.0960   24.8380 C   0  0  0  0  0  0  0  0  0  0  0  0
  -43.7020  -17.6960   22.7940 C   0  0  0  0  0  0  0  0  0  0  0  0
  -42.6330  -17.4910   21.7270 C   0  0  2  0  0  0  0  0  0  0  0  0
  -40.5530  -18.3690   20.6550 C   0  0  2  0  0  0  0  0  0  0  0  0
  -43.2860  -17.3560   20.3510 C   0  0  2  0  0  0  0  0  0  0  0  0
  -41.2050  -18.2250   19.2770 C   0  0  0  0  0  0  0  0  0  0  0  0
  -44.0090  -18.6580   19.9970 C   0  0  0  0  0  0  0  0  0  0  0  0
  -42.2070  -17.0690   19.3030 C   0  0  2  0  0  0  0  0  0  0  0  0
  -44.2920  -16.2030   20.3770 C   0  0  0  0  0  0  0  0  0  0  0  0
  -41.4790  -15.7730   19.6660 C   0  0  0  0  0  0  0  0  0  0  0  0
  -43.5700  -14.9050   20.7420 C   0  0  0  0  0  0  0  0  0  0  0  0
  -42.4800  -14.6160   19.6960 C   0  0  1  0  0  0  0  0  0  0  0  0
  -42.1890  -20.6240   26.0760 C   0  0  2  0  0  0  0  0  0  0  0  0
  -42.5560  -20.1180   27.4730 C   0  0  0  0  0  0  0  0  0  0  0  0
  -41.3230  -21.8790   26.2000 C   0  0  0  0  0  0  0  0  0  0  0  0
  -41.0240  -22.1490   27.6760 C   0  0  0  0  0  0  0  0  0  0  0  0
  -39.5620  -22.4760   27.8410 C   0  0  0  0  0  0  0  0  0  0  0  0
  -38.8600  -22.9560   26.8030 O   0  0  0  0  0  0  0  0  0  0  0  0
  -39.0220  -22.3040   28.9090 O   0  0  0  0  0  0  0  0  0  0  0  0
  -39.6160  -19.4470   20.6280 O   0  0  0  0  0  0  0  0  0  0  0  0
  -38.9540  -19.2250   19.9580 H   0  0  0  0  0  0  0  0  0  0  0  0
  -41.7990  -13.4070   20.0370 O   0  0  0  0  0  0  0  0  0  0  0  0
  -42.4640  -12.7040   20.0440 H   0  0  0  0  0  0  0  0  0  0  0  0
  2  1  1  6  0  0  0
  2  5  1  0  0  0  0
  2  4  1  0  0  0  0
  3  7  1  6  0  0  0
  3  2  1  0  0  0  0
  4 20  1  6  0  0  0
  6 10  1  0  0  0  0
  6  3  1  0  0  0  0
  7  8  1  0  0  0  0
  8  4  1  0  0  0  0
  9  5  1  0  0  0  0
 10  9  1  0  0  0  0
 11  6  1  0  0  0  0
 12 16  1  0  0  0  0
 12 10  1  0  0  0  0
 13 15  1  0  0  0  0
 13 11  1  0  0  0  0
 14 12  1  0  0  0  0
 15 17  1  0  0  0  0
 15 12  1  0  0  0  0
 16 18  1  0  0  0  0
 17 19  1  0  0  0  0
 19 29  1  0  0  0  0
 19 18  1  0  0  0  0
 20 22  1  0  0  0  0
 20 21  1  0  0  0  0
 22 23  1  0  0  0  0
 23 24  1  0  0  0  0
 24 26  1  0  0  0  0
 25 24  2  0  0  0  0
 27 11  1  0  0  0  0
 28 27  1  0  0  0  0
 29 30  1  0  0  0  0
M  END
>  <minimizedAffinity>
-4.88999557

>  <CNNscore>
0.337532341

>  <CNNaffinity>
5.37155151

$$$$

 OpenBabel01022600283D

 30 33  0  0  1  0  0  0  0  0999 V2000
  -44.8770   -4.1290   27.4970 C   0  0  0  0  0  0  0  0  0  0  0  0
  -43.6030   -4.9380   27.2430 C   0  0  2  0  0  0  0  0  0  0  0  0
  -42.4140   -4.2960   28.0070 C   0  0  2  0  0  0  0  0  0  0  0  0
  -43.1930   -4.8080   25.7800 C   0  0  2  0  0  0  0  0  0  0  0  0
  -43.7770   -6.3480   27.7750 C   0  0  0  0  0  0  0  0  0  0  0  0
  -42.8740   -4.0690   29.4350 C   0  0  1  0  0  0  0  0  0  0  0  0
  -42.1580   -3.0330   27.1780 C   0  0  0  0  0  0  0  0  0  0  0  0
  -42.3010   -3.5410   25.7170 C   0  0  0  0  0  0  0  0  0  0  0  0
  -44.1770   -6.2320   29.2560 C   0  0  0  0  0  0  0  0  0  0  0  0
  -43.1370   -5.4520   30.0520 C   0  0  2  0  0  0  0  0  0  0  0  0
  -41.7840   -3.3590   30.2380 C   0  0  2  0  0  0  0  0  0  0  0  0
  -43.6070   -5.2770   31.4960 C   0  0  2  0  0  0  0  0  0  0  0  0
  -42.2480   -3.1890   31.6870 C   0  0  0  0  0  0  0  0  0  0  0  0
  -44.8890   -4.4410   31.5210 C   0  0  0  0  0  0  0  0  0  0  0  0
  -42.5170   -4.5650   32.3020 C   0  0  2  0  0  0  0  0  0  0  0  0
  -43.8810   -6.6510   32.1120 C   0  0  0  0  0  0  0  0  0  0  0  0
  -41.2340   -5.3970   32.2670 C   0  0  0  0  0  0  0  0  0  0  0  0
  -42.6020   -7.4890   32.0770 C   0  0  0  0  0  0  0  0  0  0  0  0
  -41.5010   -6.7740   32.8790 C   0  0  1  0  0  0  0  0  0  0  0  0
  -44.4280   -4.6310   24.8960 C   0  0  2  0  0  0  0  0  0  0  0  0
  -45.3210   -5.8670   25.0150 C   0  0  0  0  0  0  0  0  0  0  0  0
  -43.9920   -4.4540   23.4400 C   0  0  0  0  0  0  0  0  0  0  0  0
  -42.7450   -5.3000   23.1750 C   0  0  0  0  0  0  0  0  0  0  0  0
  -43.1510   -6.6190   22.5690 C   0  0  0  0  0  0  0  0  0  0  0  0
  -43.8010   -6.6470   21.3950 O   0  0  0  0  0  0  0  0  0  0  0  0
  -42.8910   -7.6520   23.1400 O   0  0  0  0  0  0  0  0  0  0  0  0
  -41.5300   -2.0750   29.6660 O   0  0  0  0  0  0  0  0  0  0  0  0
  -40.8380   -1.6620   30.2010 H   0  0  0  0  0  0  0  0  0  0  0  0
  -40.3030   -7.5510   32.8430 O   0  0  0  0  0  0  0  0  0  0  0  0
  -40.5140   -8.4090   33.2380 H   0  0  0  0  0  0  0  0  0  0  0  0
  2  1  1  1  0  0  0
  2  5  1  0  0  0  0
  2  3  1  0  0  0  0
  3  7  1  6  0  0  0
  3  6  1  0  0  0  0
  4 20  1  6  0  0  0
  4  2  1  0  0  0  0
  5  9  1  0  0  0  0
  6 10  1  0  0  0  0
  6 11  1  0  0  0  0
  8  4  1  0  0  0  0
  8  7  1  0  0  0  0
  9 10  1  0  0  0  0
 10 12  1  0  0  0  0
 11 13  1  0  0  0  0
 12 14  1  0  0  0  0
 12 16  1  0  0  0  0
 12 15  1  0  0  0  0
 13 15  1  0  0  0  0
 17 15  1  0  0  0  0
 17 19  1  0  0  0  0
 18 16  1  0  0  0  0
 18 19  1  0  0  0  0
 20 21  1  0  0  0  0
 22 20  1  0  0  0  0
 23 22  1  0  0  0  0
 24 26  1  0  0  0  0
 24 23  1  0  0  0  0
 25 24  2  0  0  0  0
 27 28  1  0  0  0  0
 27 11  1  0  0  0  0
 29 19  1  0  0  0  0
 29 30  1  0  0  0  0
M  END
>  <minimizedAffinity>
-4.70619774

>  <CNNscore>
0.310408205

>  <CNNaffinity>
5.71978378

$$$$

 OpenBabel01022600283D

 30 33  0  0  1  0  0  0  0  0999 V2000
  -42.4780  -15.8680   17.4300 C   0  0  0  0  0  0  0  0  0  0  0  0
  -41.1490  -15.5770   18.1290 C   0  0  2  0  0  0  0  0  0  0  0  0
  -41.3940  -15.3370   19.6430 C   0  0  2  0  0  0  0  0  0  0  0  0
  -40.5960  -14.2400   17.6480 C   0  0  2  0  0  0  0  0  0  0  0  0
  -40.2290  -16.7760   18.0020 C   0  0  0  0  0  0  0  0  0  0  0  0
  -42.2550  -16.4840   20.1400 C   0  0  1  0  0  0  0  0  0  0  0  0
  -42.0580  -13.9570   19.6360 C   0  0  0  0  0  0  0  0  0  0  0  0
  -41.2260  -13.1760   18.5830 C   0  0  0  0  0  0  0  0  0  0  0  0
  -40.9870  -17.9950   18.5530 C   0  0  0  0  0  0  0  0  0  0  0  0
  -41.4260  -17.7700   19.9960 C   0  0  2  0  0  0  0  0  0  0  0  0
  -42.6150  -16.2800   21.6120 C   0  0  2  0  0  0  0  0  0  0  0  0
  -42.2530  -18.9590   20.4830 C   0  0  2  0  0  0  0  0  0  0  0  0
  -43.4370  -17.4730   22.1050 C   0  0  0  0  0  0  0  0  0  0  0  0
  -43.5340  -19.0680   19.6530 C   0  0  0  0  0  0  0  0  0  0  0  0
  -42.6150  -18.7560   21.9570 C   0  0  2  0  0  0  0  0  0  0  0  0
  -41.4350  -20.2440   20.3310 C   0  0  0  0  0  0  0  0  0  0  0  0
  -41.3330  -18.6370   22.7830 C   0  0  0  0  0  0  0  0  0  0  0  0
  -40.1510  -20.1300   21.1540 C   0  0  0  0  0  0  0  0  0  0  0  0
  -40.5090  -19.9180   22.6350 C   0  0  1  0  0  0  0  0  0  0  0  0
  -41.0120  -13.9840   16.1990 C   0  0  2  0  0  0  0  0  0  0  0  0
  -39.8220  -14.2450   15.2730 C   0  0  0  0  0  0  0  0  0  0  0  0
  -41.4660  -12.5310   16.0470 C   0  0  0  0  0  0  0  0  0  0  0  0
  -41.9710  -12.3010   14.6210 C   0  0  0  0  0  0  0  0  0  0  0  0
  -42.1600  -10.8240   14.3860 C   0  0  0  0  0  0  0  0  0  0  0  0
  -41.9370  -10.3030   13.1700 O   0  0  0  0  0  0  0  0  0  0  0  0
  -42.5150  -10.1100   15.2950 O   0  0  0  0  0  0  0  0  0  0  0  0
  -43.3820  -15.0820   21.7540 O   0  0  0  0  0  0  0  0  0  0  0  0
  -43.5860  -14.9920   22.6950 H   0  0  0  0  0  0  0  0  0  0  0  0
  -39.3110  -19.8050   23.4040 O   0  0  0  0  0  0  0  0  0  0  0  0
  -38.8220  -20.6310   23.2840 H   0  0  0  0  0  0  0  0  0  0  0  0
  2  1  1  6  0  0  0
  2  3  1  0  0  0  0
  3  7  1  6  0  0  0
  3  6  1  0  0  0  0
  4 20  1  6  0  0  0
  4  2  1  0  0  0  0
  4  8  1  0  0  0  0
  5  2  1  0  0  0  0
  5  9  1  0  0  0  0
  6 11  1  0  0  0  0
  8  7  1  0  0  0  0
  9 10  1  0  0  0  0
 10  6  1  0  0  0  0
 10 12  1  0  0  0  0
 11 27  1  0  0  0  0
 11 13  1  0  0  0  0
 12 15  1  0  0  0  0
 14 12  1  0  0  0  0
 15 13  1  0  0  0  0
 15 17  1  0  0  0  0
 16 12  1  0  0  0  0
 16 18  1  0  0  0  0
 18 19  1  0  0  0  0
 19 17  1  0  0  0  0
 19 29  1  0  0  0  0
 21 20  1  0  0  0  0
 22 20  1  0  0  0  0
 23 22  1  0  0  0  0
 24 23  1  0  0  0  0
 24 26  1  0  0  0  0
 25 24  2  0  0  0  0
 27 28  1  0  0  0  0
 30 29  1  0  0  0  0
M  END
>  <minimizedAffinity>
-5.23359632

>  <CNNscore>
0.273749173

>  <CNNaffinity>
5.42775154

$$$$
