11850542
  -OEChem-02012620343D

 40 42  0     1  0  0  0  0  0999 V2000
    2.6268   -1.7698   -0.3842 Si  0  0  0  0  0  0  0  0  0  0  0  0
    2.9698   -0.2713    0.2882 O   0  0  0  0  0  0  0  0  0  0  0  0
   -1.7353    2.2476   -1.3178 O   0  0  0  0  0  0  0  0  0  0  0  0
    0.9022    0.8302   -0.1640 N   0  0  2  0  0  0  0  0  0  0  0  0
    1.0246    2.2699   -0.4111 C   0  0  1  0  0  0  0  0  0  0  0  0
   -0.1658    1.7023    0.3197 C   0  0  1  0  0  0  0  0  0  0  0  0
    1.9162    0.5049    0.8574 C   0  0  2  0  0  0  0  0  0  0  0  0
    2.2035    2.8382    0.3048 C   0  0  0  0  0  0  0  0  0  0  0  0
    2.5009    1.8183    1.3958 C   0  0  0  0  0  0  0  0  0  0  0  0
   -1.4185    1.4814   -0.4165 C   0  0  0  0  0  0  0  0  0  0  0  0
   -2.2708    0.3163   -0.0708 C   0  0  0  0  0  0  0  0  0  0  0  0
    4.2089   -2.5479   -1.0491 C   0  0  0  0  0  0  0  0  0  0  0  0
    1.4120   -1.6132   -1.8120 C   0  0  0  0  0  0  0  0  0  0  0  0
    1.8982   -2.9392    0.8963 C   0  0  0  0  0  0  0  0  0  0  0  0
   -1.8626   -0.5328    0.9377 C   0  0  0  0  0  0  0  0  0  0  0  0
   -3.4452    0.1184   -0.7678 C   0  0  0  0  0  0  0  0  0  0  0  0
   -2.6635   -1.6275    1.2629 C   0  0  0  0  0  0  0  0  0  0  0  0
   -4.2462   -0.9763   -0.4425 C   0  0  0  0  0  0  0  0  0  0  0  0
   -3.8553   -1.8492    0.5729 C   0  0  0  0  0  0  0  0  0  0  0  0
    0.9279    2.5974   -1.4361 H   0  0  0  0  0  0  0  0  0  0  0  0
   -0.2492    1.8926    1.3835 H   0  0  0  0  0  0  0  0  0  0  0  0
    1.4775   -0.0564    1.6931 H   0  0  0  0  0  0  0  0  0  0  0  0
    1.9975    3.8299    0.7179 H   0  0  0  0  0  0  0  0  0  0  0  0
    3.0524    2.9186   -0.3834 H   0  0  0  0  0  0  0  0  0  0  0  0
    3.5720    1.7659    1.6138 H   0  0  0  0  0  0  0  0  0  0  0  0
    1.9738    2.1133    2.3114 H   0  0  0  0  0  0  0  0  0  0  0  0
    4.9384   -2.6784   -0.2445 H   0  0  0  0  0  0  0  0  0  0  0  0
    4.0005   -3.5275   -1.4891 H   0  0  0  0  0  0  0  0  0  0  0  0
    4.6540   -1.9108   -1.8188 H   0  0  0  0  0  0  0  0  0  0  0  0
    1.6958   -0.7942   -2.4793 H   0  0  0  0  0  0  0  0  0  0  0  0
    1.4077   -2.5376   -2.3984 H   0  0  0  0  0  0  0  0  0  0  0  0
    0.3907   -1.4485   -1.4586 H   0  0  0  0  0  0  0  0  0  0  0  0
    1.7252   -3.9272    0.4597 H   0  0  0  0  0  0  0  0  0  0  0  0
    2.5797   -3.0518    1.7445 H   0  0  0  0  0  0  0  0  0  0  0  0
    0.9433   -2.5586    1.2700 H   0  0  0  0  0  0  0  0  0  0  0  0
   -0.9538   -0.3941    1.5105 H   0  0  0  0  0  0  0  0  0  0  0  0
   -3.7670    0.7863   -1.5612 H   0  0  0  0  0  0  0  0  0  0  0  0
   -2.3608   -2.3061    2.0551 H   0  0  0  0  0  0  0  0  0  0  0  0
   -5.1742   -1.1493   -0.9795 H   0  0  0  0  0  0  0  0  0  0  0  0
   -4.4792   -2.7012    0.8266 H   0  0  0  0  0  0  0  0  0  0  0  0
  1  2  1  0  0  0  0
  1 12  1  0  0  0  0
  1 13  1  0  0  0  0
  1 14  1  0  0  0  0
  2  7  1  0  0  0  0
  3 10  2  0  0  0  0
  4  5  1  0  0  0  0
  4  6  1  0  0  0  0
  4  7  1  0  0  0  0
  5  6  1  0  0  0  0
  5  8  1  0  0  0  0
  5 20  1  0  0  0  0
  6 10  1  0  0  0  0
  6 21  1  0  0  0  0
  7  9  1  0  0  0  0
  7 22  1  0  0  0  0
  8  9  1  0  0  0  0
  8 23  1  0  0  0  0
  8 24  1  0  0  0  0
  9 25  1  0  0  0  0
  9 26  1  0  0  0  0
 10 11  1  0  0  0  0
 11 15  2  0  0  0  0
 11 16  1  0  0  0  0
 12 27  1  0  0  0  0
 12 28  1  0  0  0  0
 12 29  1  0  0  0  0
 13 30  1  0  0  0  0
 13 31  1  0  0  0  0
 13 32  1  0  0  0  0
 14 33  1  0  0  0  0
 14 34  1  0  0  0  0
 14 35  1  0  0  0  0
 15 17  1  0  0  0  0
 15 36  1  0  0  0  0
 16 18  2  0  0  0  0
 16 37  1  0  0  0  0
 17 19  2  0  0  0  0
 17 38  1  0  0  0  0
 18 19  1  0  0  0  0
 18 39  1  0  0  0  0
 19 40  1  0  0  0  0
M  END
> <PUBCHEM_COMPOUND_CID>
11850542

> <PUBCHEM_CONFORMER_RMSD>
0.6

> <PUBCHEM_CONFORMER_DIVERSEORDER>
1
7
22
3
10
5
15
16
21
23
20
18
13
4
8
19
11
2
9
12
14
17
6

> <PUBCHEM_MMFF94_PARTIAL_CHARGES>
25
1 0.54
10 0.48
11 0.09
12 -0.08
13 -0.08
14 -0.08
15 -0.15
16 -0.15
17 -0.15
18 -0.15
19 -0.15
2 -0.58
20 0.1
21 0.1
3 -0.57
36 0.15
37 0.15
38 0.15
39 0.15
4 -0.59
40 0.15
5 -0.04
6 0.06
7 0.55
8 0.09

> <PUBCHEM_EFFECTIVE_ROTOR_COUNT>
4.8

> <PUBCHEM_PHARMACOPHORE_FEATURES>
4
1 3 acceptor
1 4 cation
6 11 15 16 17 18 19 rings
6 4 5 6 7 8 9 rings

> <PUBCHEM_HEAVY_ATOM_COUNT>
19

> <PUBCHEM_ATOM_DEF_STEREO_COUNT>
3

> <PUBCHEM_ATOM_UDEF_STEREO_COUNT>
0

> <PUBCHEM_BOND_DEF_STEREO_COUNT>
0

> <PUBCHEM_BOND_UDEF_STEREO_COUNT>
0

> <PUBCHEM_ISOTOPIC_ATOM_COUNT>
0

> <PUBCHEM_COMPONENT_COUNT>
1

> <PUBCHEM_CACTVS_TAUTO_COUNT>
2

> <PUBCHEM_CONFORMER_ID>
00B4D32E00000001

> <PUBCHEM_MMFF94_ENERGY>
45.8023

> <PUBCHEM_FEATURE_SELFOVERLAP>
20.297

> <PUBCHEM_SHAPE_FINGERPRINT>
114674 6 18334856168508250659
11582403 64 16319971350733155805
116883 192 18335134276615469357
117890 22 18411704309186117887
12363563 72 18340494352566380750
12506688 2 18341614755136195266
12553582 1 18193561060253551674
12596599 1 17916886663269520127
12788726 201 17476641980027061472
12841375 5 18058748982184288084
13533116 47 18272654601861310987
13544592 145 18335696092882030589
14223421 5 18410569595768916089
14787075 74 18409460180748610414
14790565 3 17185878290257012696
14863182 85 17974580395977615396
15635459 17 18335137639405927243
17357779 13 18410289185923139063
20397935 3 18187940434301224054
20645477 70 18341602763687751399
20693207 138 18335698304230947604
20871999 31 18117281345917797612
21197605 99 17473549526233901699
21285901 2 17969484061542340381
221490 88 18410858750474154126
23557571 272 17822566205115703957
23559900 14 18334005090699793236
238078 22 18052550876462276918
2748010 2 18339910529245740252
2871803 45 18335138665802987862
314173 41 18338803290760646246
329604 57 18336838494253859942
33824 294 18267580393462221723
7364860 26 18342457088311934456
81228 2 17121983492234217040
8809292 202 18122344575573122444
9709674 26 18409160030789502549

> <PUBCHEM_SHAPE_MULTIPOLES>
392.5
7.12
3.61
1.34
3.37
0.68
0.1
-5.02
0.55
-2.62
-0.13
-0.2
-0.29
1.64

> <PUBCHEM_SHAPE_SELFOVERLAP>
806.572

> <PUBCHEM_SHAPE_VOLUME>
229

> <PUBCHEM_COORDINATE_TYPE>
2
5
10

$$$$
